/*---------------------------------------------------------------------------*\
| =========                 |                                                 |
| \\      /  F ield         | OpenFOAM: The Open Source CFD Toolbox           |
|  \\    /   O peration     | Version:  2206                                  |
|   \\  /    A nd           | Website:  www.openfoam.com                      |
|    \\/     M anipulation  |                                                 |
\*---------------------------------------------------------------------------*/
Build  : _76d719d1-20220624 OPENFOAM=2206 version=2206
Arch   : "LSB;label=32;scalar=64"
Exec   : pisoFoam -parallel
Date   : Nov 13 2023
Time   : 13:09:34
Host   : MSI
PID    : 7301
I/O    : uncollated
Case   : /home/baqer/Git-hub-OpenFoam/snappy-pipe-2/pipe-flow-2/PisoFoam-turbulant
nProcs : 6
Hosts  :
(
    (MSI 6)
)
Pstream initialized with:
    floatTransfer      : 0
    nProcsSimpleSum    : 0
    commsType          : nonBlocking
    polling iterations : 0
trapFpe: Floating point exception trapping enabled (FOAM_SIGFPE).
fileModificationChecking : Monitoring run-time modified files using timeStampMaster (fileModificationSkew 5, maxFileModificationPolls 20)
allowSystemOperations : Allowing user-supplied system call operations

// * * * * * * * * * * * * * * * * * * * * * * * * * * * * * * * * * * * * * //
Create time

Create mesh for time = 0


PISO: Operating solver in PISO mode

Reading field p

Reading field U

Reading/calculating face flux field phi

Selecting incompressible transport model Newtonian
Selecting turbulence model type RAS
Selecting RAS turbulence model kEpsilon
RAS
{
    RASModel        kEpsilon;
    turbulence      on;
    printCoeffs     on;
    Cmu             0.09;
    C1              1.44;
    C2              1.92;
    C3              0;
    sigmak          1;
    sigmaEps        1.3;
}

No MRF models present

No finite volume options present

Starting time loop

Time = 0.025

Courant Number mean: 0.0376758 max: 0.306184
smoothSolver:  Solving for Ux, Initial residual = 1, Final residual = 6.89875e-07, No Iterations 3
smoothSolver:  Solving for Uy, Initial residual = 1, Final residual = 6.89871e-07, No Iterations 3
smoothSolver:  Solving for Uz, Initial residual = 1, Final residual = 3.02273e-07, No Iterations 3
DICPCG:  Solving for p, Initial residual = 1, Final residual = 0.0459632, No Iterations 491
time step continuity errors : sum local = 6.1408e-06, global = -2.62327e-20, cumulative = -2.62327e-20
DICPCG:  Solving for p, Initial residual = 0.0424967, Final residual = 9.35089e-07, No Iterations 532
time step continuity errors : sum local = 5.34713e-10, global = -6.53672e-20, cumulative = -9.15998e-20
smoothSolver:  Solving for epsilon, Initial residual = 0.00111301, Final residual = 4.22993e-07, No Iterations 1
smoothSolver:  Solving for k, Initial residual = 1, Final residual = 1.37305e-07, No Iterations 3
ExecutionTime = 2.02 s  ClockTime = 2 s

Time = 0.05

Courant Number mean: 0.0041712 max: 0.208962
smoothSolver:  Solving for Ux, Initial residual = 0.332753, Final residual = 2.14367e-08, No Iterations 2
smoothSolver:  Solving for Uy, Initial residual = 0.332752, Final residual = 2.45742e-08, No Iterations 2
smoothSolver:  Solving for Uz, Initial residual = 0.981883, Final residual = 5.41985e-08, No Iterations 2
DICPCG:  Solving for p, Initial residual = 0.773159, Final residual = 0.0347379, No Iterations 487
time step continuity errors : sum local = 5.68572e-05, global = 2.3491e-20, cumulative = -6.81089e-20
DICPCG:  Solving for p, Initial residual = 0.0286656, Final residual = 8.12193e-07, No Iterations 531
time step continuity errors : sum local = 1.95076e-09, global = 1.80292e-20, cumulative = -5.00797e-20
smoothSolver:  Solving for epsilon, Initial residual = 0.000691243, Final residual = 4.26857e-07, No Iterations 1
smoothSolver:  Solving for k, Initial residual = 0.0606963, Final residual = 7.12407e-07, No Iterations 2
ExecutionTime = 3.44 s  ClockTime = 3 s

Time = 0.075

Courant Number mean: 0.0033837 max: 0.237142
smoothSolver:  Solving for Ux, Initial residual = 0.068629, Final residual = 4.98283e-06, No Iterations 1
smoothSolver:  Solving for Uy, Initial residual = 0.0686288, Final residual = 5.028e-06, No Iterations 1
smoothSolver:  Solving for Uz, Initial residual = 0.524575, Final residual = 1.65569e-07, No Iterations 2
DICPCG:  Solving for p, Initial residual = 0.19445, Final residual = 0.00899442, No Iterations 4
time step continuity errors : sum local = 1.96555e-05, global = 9.25795e-20, cumulative = 4.24998e-20
DICPCG:  Solving for p, Initial residual = 0.0101514, Final residual = 8.09949e-07, No Iterations 521
time step continuity errors : sum local = 1.60363e-09, global = 8.60671e-20, cumulative = 1.28567e-19
smoothSolver:  Solving for epsilon, Initial residual = 0.000675844, Final residual = 7.75699e-07, No Iterations 1
smoothSolver:  Solving for k, Initial residual = 0.0288192, Final residual = 7.67906e-07, No Iterations 2
ExecutionTime = 4.17 s  ClockTime = 4 s

Time = 0.1

Courant Number mean: 0.00306906 max: 0.234823
smoothSolver:  Solving for Ux, Initial residual = 0.0443764, Final residual = 2.22768e-06, No Iterations 1
smoothSolver:  Solving for Uy, Initial residual = 0.0443769, Final residual = 2.25645e-06, No Iterations 1
smoothSolver:  Solving for Uz, Initial residual = 0.265294, Final residual = 8.67518e-08, No Iterations 2
DICPCG:  Solving for p, Initial residual = 0.123831, Final residual = 0.0037432, No Iterations 2
time step continuity errors : sum local = 6.95539e-06, global = 7.73731e-20, cumulative = 2.0594e-19
DICPCG:  Solving for p, Initial residual = 0.00403047, Final residual = 9.86499e-07, No Iterations 506
time step continuity errors : sum local = 1.71062e-09, global = 7.71179e-20, cumulative = 2.83058e-19
smoothSolver:  Solving for epsilon, Initial residual = 0.000645737, Final residual = 8.49093e-07, No Iterations 1
smoothSolver:  Solving for k, Initial residual = 0.0183229, Final residual = 4.14625e-07, No Iterations 2
ExecutionTime = 5 s  ClockTime = 5 s

Time = 0.125

Courant Number mean: 0.00289583 max: 0.231898
smoothSolver:  Solving for Ux, Initial residual = 0.0325223, Final residual = 1.48236e-06, No Iterations 1
smoothSolver:  Solving for Uy, Initial residual = 0.0325228, Final residual = 1.50165e-06, No Iterations 1
smoothSolver:  Solving for Uz, Initial residual = 0.183831, Final residual = 9.34361e-06, No Iterations 1
DICPCG:  Solving for p, Initial residual = 0.0869974, Final residual = 0.00170889, No Iterations 2
time step continuity errors : sum local = 2.82998e-06, global = 7.78976e-20, cumulative = 3.60956e-19
DICPCG:  Solving for p, Initial residual = 0.00181285, Final residual = 9.44124e-07, No Iterations 506
time step continuity errors : sum local = 1.48713e-09, global = 7.70399e-20, cumulative = 4.37995e-19
smoothSolver:  Solving for epsilon, Initial residual = 0.000610008, Final residual = 6.9626e-07, No Iterations 1
smoothSolver:  Solving for k, Initial residual = 0.0135725, Final residual = 9.70801e-06, No Iterations 1
ExecutionTime = 6.11 s  ClockTime = 6 s

Time = 0.15

Courant Number mean: 0.00276948 max: 0.231877
smoothSolver:  Solving for Ux, Initial residual = 0.0251016, Final residual = 1.17446e-06, No Iterations 1
smoothSolver:  Solving for Uy, Initial residual = 0.0251019, Final residual = 1.18864e-06, No Iterations 1
smoothSolver:  Solving for Uz, Initial residual = 0.143979, Final residual = 7.7653e-06, No Iterations 1
DICPCG:  Solving for p, Initial residual = 0.0641369, Final residual = 0.000877047, No Iterations 2
time step continuity errors : sum local = 1.33211e-06, global = 7.7146e-20, cumulative = 5.15141e-19
DICPCG:  Solving for p, Initial residual = 0.000923022, Final residual = 9.95265e-07, No Iterations 507
time step continuity errors : sum local = 1.45333e-09, global = 7.63629e-20, cumulative = 5.91504e-19
smoothSolver:  Solving for epsilon, Initial residual = 0.000575215, Final residual = 5.222e-07, No Iterations 1
smoothSolver:  Solving for k, Initial residual = 0.0110267, Final residual = 5.25841e-06, No Iterations 1
ExecutionTime = 7.02 s  ClockTime = 7 s

Time = 0.175

Courant Number mean: 0.00266398 max: 0.234334
smoothSolver:  Solving for Ux, Initial residual = 0.0204432, Final residual = 9.82622e-07, No Iterations 1
smoothSolver:  Solving for Uy, Initial residual = 0.0204435, Final residual = 9.94001e-07, No Iterations 1
smoothSolver:  Solving for Uz, Initial residual = 0.127382, Final residual = 7.00078e-06, No Iterations 1
DICPCG:  Solving for p, Initial residual = 0.0487314, Final residual = 0.000547852, No Iterations 2
time step continuity errors : sum local = 7.75606e-07, global = 7.52127e-20, cumulative = 6.66717e-19
DICPCG:  Solving for p, Initial residual = 0.000572858, Final residual = 8.8137e-07, No Iterations 504
time step continuity errors : sum local = 1.20687e-09, global = 7.51023e-20, cumulative = 7.41819e-19
smoothSolver:  Solving for epsilon, Initial residual = 0.000543669, Final residual = 3.92905e-07, No Iterations 1
smoothSolver:  Solving for k, Initial residual = 0.00945362, Final residual = 3.70233e-06, No Iterations 1
ExecutionTime = 7.82 s  ClockTime = 8 s

Time = 0.2

Courant Number mean: 0.00256854 max: 0.238301
smoothSolver:  Solving for Ux, Initial residual = 0.0175601, Final residual = 8.577e-07, No Iterations 1
smoothSolver:  Solving for Uy, Initial residual = 0.0175603, Final residual = 8.67195e-07, No Iterations 1
smoothSolver:  Solving for Uz, Initial residual = 0.11771, Final residual = 6.4187e-06, No Iterations 1
DICPCG:  Solving for p, Initial residual = 0.0381736, Final residual = 0.000458854, No Iterations 2
time step continuity errors : sum local = 6.11141e-07, global = 7.40183e-20, cumulative = 8.15837e-19
DICPCG:  Solving for p, Initial residual = 0.00047725, Final residual = 9.9149e-07, No Iterations 507
time step continuity errors : sum local = 1.2819e-09, global = 7.40987e-20, cumulative = 8.89936e-19
smoothSolver:  Solving for epsilon, Initial residual = 0.000515522, Final residual = 3.05079e-07, No Iterations 1
smoothSolver:  Solving for k, Initial residual = 0.00836485, Final residual = 3.00078e-06, No Iterations 1
ExecutionTime = 8.68 s  ClockTime = 9 s

Time = 0.225

Courant Number mean: 0.00247995 max: 0.24355
smoothSolver:  Solving for Ux, Initial residual = 0.0160352, Final residual = 7.82523e-07, No Iterations 1
smoothSolver:  Solving for Uy, Initial residual = 0.0160353, Final residual = 7.90851e-07, No Iterations 1
smoothSolver:  Solving for Uz, Initial residual = 0.110545, Final residual = 6.02171e-06, No Iterations 1
DICPCG:  Solving for p, Initial residual = 0.0305548, Final residual = 0.000356298, No Iterations 2
time step continuity errors : sum local = 4.49338e-07, global = 7.206e-20, cumulative = 9.61996e-19
DICPCG:  Solving for p, Initial residual = 0.00036919, Final residual = 9.92316e-07, No Iterations 503
time step continuity errors : sum local = 1.21834e-09, global = 7.34039e-20, cumulative = 1.0354e-18
smoothSolver:  Solving for epsilon, Initial residual = 0.000490373, Final residual = 2.44986e-07, No Iterations 1
smoothSolver:  Solving for k, Initial residual = 0.00755198, Final residual = 2.49285e-06, No Iterations 1
ExecutionTime = 9.5 s  ClockTime = 9 s

Time = 0.25

Courant Number mean: 0.00239667 max: 0.249625
smoothSolver:  Solving for Ux, Initial residual = 0.015285, Final residual = 7.37491e-07, No Iterations 1
smoothSolver:  Solving for Uy, Initial residual = 0.0152851, Final residual = 7.44951e-07, No Iterations 1
smoothSolver:  Solving for Uz, Initial residual = 0.10462, Final residual = 5.62108e-06, No Iterations 1
DICPCG:  Solving for p, Initial residual = 0.0258707, Final residual = 0.000334844, No Iterations 2
time step continuity errors : sum local = 4.01686e-07, global = 7.11005e-20, cumulative = 1.1065e-18
DICPCG:  Solving for p, Initial residual = 0.000345596, Final residual = 8.11455e-07, No Iterations 508
time step continuity errors : sum local = 9.49596e-10, global = 7.12973e-20, cumulative = 1.1778e-18
smoothSolver:  Solving for epsilon, Initial residual = 0.000467755, Final residual = 2.01749e-07, No Iterations 1
smoothSolver:  Solving for k, Initial residual = 0.00691383, Final residual = 2.11582e-06, No Iterations 1
ExecutionTime = 10.31 s  ClockTime = 10 s

Time = 0.275

Courant Number mean: 0.00231769 max: 0.256503
smoothSolver:  Solving for Ux, Initial residual = 0.0148492, Final residual = 7.07384e-07, No Iterations 1
smoothSolver:  Solving for Uy, Initial residual = 0.0148493, Final residual = 7.14054e-07, No Iterations 1
smoothSolver:  Solving for Uz, Initial residual = 0.0995193, Final residual = 5.22774e-06, No Iterations 1
DICPCG:  Solving for p, Initial residual = 0.0234218, Final residual = 0.000293329, No Iterations 2
time step continuity errors : sum local = 3.35846e-07, global = 6.90091e-20, cumulative = 1.24681e-18
DICPCG:  Solving for p, Initial residual = 0.000301306, Final residual = 9.02676e-07, No Iterations 503
time step continuity errors : sum local = 1.0098e-09, global = 6.94477e-20, cumulative = 1.31625e-18
smoothSolver:  Solving for epsilon, Initial residual = 0.00044722, Final residual = 1.70772e-07, No Iterations 1
smoothSolver:  Solving for k, Initial residual = 0.00639484, Final residual = 1.82321e-06, No Iterations 1
ExecutionTime = 11.14 s  ClockTime = 11 s

Time = 0.3

Courant Number mean: 0.00224232 max: 0.263926
smoothSolver:  Solving for Ux, Initial residual = 0.0146835, Final residual = 6.8713e-07, No Iterations 1
smoothSolver:  Solving for Uy, Initial residual = 0.0146836, Final residual = 6.93163e-07, No Iterations 1
smoothSolver:  Solving for Uz, Initial residual = 0.0950823, Final residual = 4.91124e-06, No Iterations 1
DICPCG:  Solving for p, Initial residual = 0.0217843, Final residual = 0.000255411, No Iterations 2
time step continuity errors : sum local = 2.79822e-07, global = 6.80969e-20, cumulative = 1.38435e-18
DICPCG:  Solving for p, Initial residual = 0.000261889, Final residual = 9.85132e-07, No Iterations 504
time step continuity errors : sum local = 1.05571e-09, global = 6.85431e-20, cumulative = 1.45289e-18
smoothSolver:  Solving for epsilon, Initial residual = 0.000428454, Final residual = 1.47534e-07, No Iterations 1
smoothSolver:  Solving for k, Initial residual = 0.00596123, Final residual = 1.58392e-06, No Iterations 1
ExecutionTime = 11.94 s  ClockTime = 12 s

Time = 0.325

Courant Number mean: 0.00217015 max: 0.271728
smoothSolver:  Solving for Ux, Initial residual = 0.0146543, Final residual = 6.7367e-07, No Iterations 1
smoothSolver:  Solving for Uy, Initial residual = 0.0146544, Final residual = 6.79186e-07, No Iterations 1
smoothSolver:  Solving for Uz, Initial residual = 0.091438, Final residual = 4.65888e-06, No Iterations 1
DICPCG:  Solving for p, Initial residual = 0.0209596, Final residual = 0.000274154, No Iterations 2
time step continuity errors : sum local = 2.87899e-07, global = 6.61849e-20, cumulative = 1.51908e-18
DICPCG:  Solving for p, Initial residual = 0.000280141, Final residual = 9.7126e-07, No Iterations 508
time step continuity errors : sum local = 9.98511e-10, global = 6.66403e-20, cumulative = 1.58572e-18
smoothSolver:  Solving for epsilon, Initial residual = 0.000411206, Final residual = 1.29241e-07, No Iterations 1
smoothSolver:  Solving for k, Initial residual = 0.00559263, Final residual = 1.39422e-06, No Iterations 1
ExecutionTime = 12.75 s  ClockTime = 13 s

Time = 0.35

Courant Number mean: 0.00210095 max: 0.279826
smoothSolver:  Solving for Ux, Initial residual = 0.0148253, Final residual = 6.67144e-07, No Iterations 1
smoothSolver:  Solving for Uy, Initial residual = 0.0148253, Final residual = 6.72176e-07, No Iterations 1
smoothSolver:  Solving for Uz, Initial residual = 0.0877533, Final residual = 4.4297e-06, No Iterations 1
DICPCG:  Solving for p, Initial residual = 0.0201219, Final residual = 0.000238554, No Iterations 2
time step continuity errors : sum local = 2.40505e-07, global = 6.54589e-20, cumulative = 1.65118e-18
DICPCG:  Solving for p, Initial residual = 0.000243814, Final residual = 9.50358e-07, No Iterations 500
time step continuity errors : sum local = 9.38802e-10, global = 6.49799e-20, cumulative = 1.71616e-18
smoothSolver:  Solving for epsilon, Initial residual = 0.000395277, Final residual = 1.14683e-07, No Iterations 1
smoothSolver:  Solving for k, Initial residual = 0.00527447, Final residual = 1.2314e-06, No Iterations 1
ExecutionTime = 13.56 s  ClockTime = 14 s

Time = 0.375

Courant Number mean: 0.00203434 max: 0.288319
smoothSolver:  Solving for Ux, Initial residual = 0.0149556, Final residual = 6.61775e-07, No Iterations 1
smoothSolver:  Solving for Uy, Initial residual = 0.0149556, Final residual = 6.66425e-07, No Iterations 1
smoothSolver:  Solving for Uz, Initial residual = 0.0832508, Final residual = 4.15083e-06, No Iterations 1
DICPCG:  Solving for p, Initial residual = 0.0195318, Final residual = 0.000240824, No Iterations 2
time step continuity errors : sum local = 2.33403e-07, global = 6.41581e-20, cumulative = 1.78032e-18
DICPCG:  Solving for p, Initial residual = 0.000245642, Final residual = 9.80626e-07, No Iterations 502
time step continuity errors : sum local = 9.31701e-10, global = 6.41933e-20, cumulative = 1.84451e-18
smoothSolver:  Solving for epsilon, Initial residual = 0.000380597, Final residual = 1.02815e-07, No Iterations 1
smoothSolver:  Solving for k, Initial residual = 0.00500074, Final residual = 1.09315e-06, No Iterations 1
ExecutionTime = 14.46 s  ClockTime = 14 s

Time = 0.4

Courant Number mean: 0.00197024 max: 0.297123
smoothSolver:  Solving for Ux, Initial residual = 0.0150344, Final residual = 6.55887e-07, No Iterations 1
smoothSolver:  Solving for Uy, Initial residual = 0.0150344, Final residual = 6.60214e-07, No Iterations 1
smoothSolver:  Solving for Uz, Initial residual = 0.0789824, Final residual = 3.90624e-06, No Iterations 1
DICPCG:  Solving for p, Initial residual = 0.019002, Final residual = 0.000227623, No Iterations 2
time step continuity errors : sum local = 2.12308e-07, global = 6.29287e-20, cumulative = 1.90744e-18
DICPCG:  Solving for p, Initial residual = 0.000232133, Final residual = 8.70653e-07, No Iterations 507
time step continuity errors : sum local = 7.96495e-10, global = 6.23589e-20, cumulative = 1.9698e-18
smoothSolver:  Solving for epsilon, Initial residual = 0.000366961, Final residual = 9.28948e-08, No Iterations 1
smoothSolver:  Solving for k, Initial residual = 0.00476327, Final residual = 9.74097e-07, No Iterations 1
ExecutionTime = 15.27 s  ClockTime = 15 s

Time = 0.425

Courant Number mean: 0.00190845 max: 0.306181
smoothSolver:  Solving for Ux, Initial residual = 0.0150742, Final residual = 6.49694e-07, No Iterations 1
smoothSolver:  Solving for Uy, Initial residual = 0.0150742, Final residual = 6.53735e-07, No Iterations 1
smoothSolver:  Solving for Uz, Initial residual = 0.0745785, Final residual = 3.65946e-06, No Iterations 1
DICPCG:  Solving for p, Initial residual = 0.0185514, Final residual = 0.000217017, No Iterations 2
time step continuity errors : sum local = 1.94989e-07, global = 6.11102e-20, cumulative = 2.03091e-18
DICPCG:  Solving for p, Initial residual = 0.000221048, Final residual = 9.30019e-07, No Iterations 487
time step continuity errors : sum local = 8.21427e-10, global = 6.16525e-20, cumulative = 2.09256e-18
smoothSolver:  Solving for epsilon, Initial residual = 0.000354264, Final residual = 8.44996e-08, No Iterations 1
smoothSolver:  Solving for k, Initial residual = 0.00455459, Final residual = 8.68857e-07, No Iterations 1
ExecutionTime = 16.12 s  ClockTime = 16 s

Time = 0.45

Courant Number mean: 0.00184887 max: 0.315422
smoothSolver:  Solving for Ux, Initial residual = 0.0150837, Final residual = 6.43165e-07, No Iterations 1
smoothSolver:  Solving for Uy, Initial residual = 0.0150837, Final residual = 6.46974e-07, No Iterations 1
smoothSolver:  Solving for Uz, Initial residual = 0.0696462, Final residual = 3.3969e-06, No Iterations 1
DICPCG:  Solving for p, Initial residual = 0.018173, Final residual = 0.000213707, No Iterations 2
time step continuity errors : sum local = 1.85119e-07, global = 6.04246e-20, cumulative = 2.15298e-18
DICPCG:  Solving for p, Initial residual = 0.000217589, Final residual = 9.40161e-07, No Iterations 499
time step continuity errors : sum local = 7.9953e-10, global = 6.0187e-20, cumulative = 2.21317e-18
smoothSolver:  Solving for epsilon, Initial residual = 0.000342363, Final residual = 7.72254e-08, No Iterations 1
smoothSolver:  Solving for k, Initial residual = 0.00436792, Final residual = 7.82603e-07, No Iterations 1
ExecutionTime = 16.85 s  ClockTime = 17 s

Time = 0.475

Courant Number mean: 0.00179141 max: 0.324781
smoothSolver:  Solving for Ux, Initial residual = 0.0150709, Final residual = 6.36423e-07, No Iterations 1
smoothSolver:  Solving for Uy, Initial residual = 0.0150709, Final residual = 6.40045e-07, No Iterations 1
smoothSolver:  Solving for Uz, Initial residual = 0.0649971, Final residual = 3.14388e-06, No Iterations 1
DICPCG:  Solving for p, Initial residual = 0.0178473, Final residual = 0.000208808, No Iterations 2
time step continuity errors : sum local = 1.74495e-07, global = 5.94445e-20, cumulative = 2.27262e-18
DICPCG:  Solving for p, Initial residual = 0.000212739, Final residual = 8.8109e-07, No Iterations 504
time step continuity errors : sum local = 7.23132e-10, global = 5.91883e-20, cumulative = 2.3318e-18
smoothSolver:  Solving for epsilon, Initial residual = 0.00033122, Final residual = 7.0885e-08, No Iterations 1
smoothSolver:  Solving for k, Initial residual = 0.00420305, Final residual = 7.04807e-07, No Iterations 1
ExecutionTime = 17.56 s  ClockTime = 18 s

Time = 0.5

Courant Number mean: 0.00173606 max: 0.334098
smoothSolver:  Solving for Ux, Initial residual = 0.0150367, Final residual = 6.29269e-07, No Iterations 1
smoothSolver:  Solving for Uy, Initial residual = 0.0150367, Final residual = 6.32741e-07, No Iterations 1
smoothSolver:  Solving for Uz, Initial residual = 0.0607776, Final residual = 2.9206e-06, No Iterations 1
DICPCG:  Solving for p, Initial residual = 0.0175855, Final residual = 0.000205978, No Iterations 2
time step continuity errors : sum local = 1.66158e-07, global = 5.84854e-20, cumulative = 2.39029e-18
DICPCG:  Solving for p, Initial residual = 0.000209891, Final residual = 7.84209e-07, No Iterations 499
time step continuity errors : sum local = 6.21511e-10, global = 5.81817e-20, cumulative = 2.44847e-18
smoothSolver:  Solving for epsilon, Initial residual = 0.000320821, Final residual = 6.53977e-08, No Iterations 1
smoothSolver:  Solving for k, Initial residual = 0.00405562, Final residual = 6.37265e-07, No Iterations 1
ExecutionTime = 18.5 s  ClockTime = 18 s

Time = 0.525

Courant Number mean: 0.00168268 max: 0.343201
smoothSolver:  Solving for Ux, Initial residual = 0.014984, Final residual = 6.22132e-07, No Iterations 1
smoothSolver:  Solving for Uy, Initial residual = 0.014984, Final residual = 6.2549e-07, No Iterations 1
smoothSolver:  Solving for Uz, Initial residual = 0.0569978, Final residual = 2.72266e-06, No Iterations 1
DICPCG:  Solving for p, Initial residual = 0.0173508, Final residual = 0.000204178, No Iterations 2
time step continuity errors : sum local = 1.59068e-07, global = 5.724e-20, cumulative = 2.50571e-18
DICPCG:  Solving for p, Initial residual = 0.000207972, Final residual = 8.40959e-07, No Iterations 497
time step continuity errors : sum local = 6.43763e-10, global = 5.72897e-20, cumulative = 2.563e-18
smoothSolver:  Solving for epsilon, Initial residual = 0.000311166, Final residual = 6.0561e-08, No Iterations 1
smoothSolver:  Solving for k, Initial residual = 0.00392417, Final residual = 5.783e-07, No Iterations 1
ExecutionTime = 19.35 s  ClockTime = 19 s

Time = 0.55

Courant Number mean: 0.00163126 max: 0.351824
smoothSolver:  Solving for Ux, Initial residual = 0.0149317, Final residual = 6.14966e-07, No Iterations 1
smoothSolver:  Solving for Uy, Initial residual = 0.0149317, Final residual = 6.18237e-07, No Iterations 1
smoothSolver:  Solving for Uz, Initial residual = 0.0535987, Final residual = 2.5487e-06, No Iterations 1
DICPCG:  Solving for p, Initial residual = 0.0171568, Final residual = 0.000202704, No Iterations 2
time step continuity errors : sum local = 1.52578e-07, global = 5.60213e-20, cumulative = 2.61902e-18
DICPCG:  Solving for p, Initial residual = 0.000206402, Final residual = 9.74691e-07, No Iterations 495
time step continuity errors : sum local = 7.21062e-10, global = 5.64115e-20, cumulative = 2.67543e-18
smoothSolver:  Solving for epsilon, Initial residual = 0.000302113, Final residual = 5.62597e-08, No Iterations 1
smoothSolver:  Solving for k, Initial residual = 0.00380703, Final residual = 5.26668e-07, No Iterations 1
ExecutionTime = 20.17 s  ClockTime = 20 s

Time = 0.575

Courant Number mean: 0.00158164 max: 0.36042
smoothSolver:  Solving for Ux, Initial residual = 0.0148684, Final residual = 6.07899e-07, No Iterations 1
smoothSolver:  Solving for Uy, Initial residual = 0.0148684, Final residual = 6.11122e-07, No Iterations 1
smoothSolver:  Solving for Uz, Initial residual = 0.0505556, Final residual = 2.39134e-06, No Iterations 1
DICPCG:  Solving for p, Initial residual = 0.0169961, Final residual = 0.000201273, No Iterations 2
time step continuity errors : sum local = 1.46426e-07, global = 5.57281e-20, cumulative = 2.73116e-18
DICPCG:  Solving for p, Initial residual = 0.000204966, Final residual = 9.87335e-07, No Iterations 497
time step continuity errors : sum local = 7.06147e-10, global = 5.56332e-20, cumulative = 2.7868e-18
smoothSolver:  Solving for epsilon, Initial residual = 0.0002936, Final residual = 5.23418e-08, No Iterations 1
smoothSolver:  Solving for k, Initial residual = 0.00371174, Final residual = 4.82015e-07, No Iterations 1
ExecutionTime = 20.95 s  ClockTime = 21 s

Time = 0.6

Courant Number mean: 0.00153372 max: 0.368988
smoothSolver:  Solving for Ux, Initial residual = 0.0147971, Final residual = 6.0096e-07, No Iterations 1
smoothSolver:  Solving for Uy, Initial residual = 0.0147971, Final residual = 6.04138e-07, No Iterations 1
smoothSolver:  Solving for Uz, Initial residual = 0.0478301, Final residual = 2.25095e-06, No Iterations 1
DICPCG:  Solving for p, Initial residual = 0.0168474, Final residual = 0.000199699, No Iterations 2
time step continuity errors : sum local = 1.40459e-07, global = 5.46865e-20, cumulative = 2.84148e-18
DICPCG:  Solving for p, Initial residual = 0.000203301, Final residual = 9.62073e-07, No Iterations 499
time step continuity errors : sum local = 6.65304e-10, global = 5.44828e-20, cumulative = 2.89596e-18
smoothSolver:  Solving for epsilon, Initial residual = 0.000285554, Final residual = 4.88803e-08, No Iterations 1
smoothSolver:  Solving for k, Initial residual = 0.00362891, Final residual = 4.42949e-07, No Iterations 1
ExecutionTime = 21.65 s  ClockTime = 22 s

Time = 0.625

Courant Number mean: 0.00148745 max: 0.376926
smoothSolver:  Solving for Ux, Initial residual = 0.0147233, Final residual = 5.9414e-07, No Iterations 1
smoothSolver:  Solving for Uy, Initial residual = 0.0147233, Final residual = 5.97271e-07, No Iterations 1
smoothSolver:  Solving for Uz, Initial residual = 0.0453724, Final residual = 2.12491e-06, No Iterations 1
DICPCG:  Solving for p, Initial residual = 0.0167377, Final residual = 0.000199656, No Iterations 2
time step continuity errors : sum local = 1.35801e-07, global = 5.40362e-20, cumulative = 2.95e-18
DICPCG:  Solving for p, Initial residual = 0.000203212, Final residual = 8.25096e-07, No Iterations 497
time step continuity errors : sum local = 5.51939e-10, global = 5.36078e-20, cumulative = 3.00361e-18
smoothSolver:  Solving for epsilon, Initial residual = 0.000278057, Final residual = 4.57831e-08, No Iterations 1
smoothSolver:  Solving for k, Initial residual = 0.00356325, Final residual = 4.08977e-07, No Iterations 1
ExecutionTime = 22.35 s  ClockTime = 22 s

Time = 0.65

Courant Number mean: 0.00144276 max: 0.384142
smoothSolver:  Solving for Ux, Initial residual = 0.0146431, Final residual = 5.87447e-07, No Iterations 1
smoothSolver:  Solving for Uy, Initial residual = 0.0146431, Final residual = 5.90546e-07, No Iterations 1
smoothSolver:  Solving for Uz, Initial residual = 0.0431392, Final residual = 2.01101e-06, No Iterations 1
DICPCG:  Solving for p, Initial residual = 0.0166169, Final residual = 0.000198774, No Iterations 2
time step continuity errors : sum local = 1.30776e-07, global = 5.30832e-20, cumulative = 3.05669e-18
DICPCG:  Solving for p, Initial residual = 0.000202301, Final residual = 8.05859e-07, No Iterations 500
time step continuity errors : sum local = 5.2135e-10, global = 5.32106e-20, cumulative = 3.1099e-18
smoothSolver:  Solving for epsilon, Initial residual = 0.000271002, Final residual = 4.29436e-08, No Iterations 1
smoothSolver:  Solving for k, Initial residual = 0.00351616, Final residual = 3.80563e-07, No Iterations 1
ExecutionTime = 23.06 s  ClockTime = 23 s

Time = 0.675

Courant Number mean: 0.00139963 max: 0.39047
smoothSolver:  Solving for Ux, Initial residual = 0.0145563, Final residual = 5.80917e-07, No Iterations 1
smoothSolver:  Solving for Uy, Initial residual = 0.0145563, Final residual = 5.83994e-07, No Iterations 1
smoothSolver:  Solving for Uz, Initial residual = 0.0410781, Final residual = 1.90606e-06, No Iterations 1
DICPCG:  Solving for p, Initial residual = 0.0165191, Final residual = 0.000197168, No Iterations 2
time step continuity errors : sum local = 1.25501e-07, global = 5.21789e-20, cumulative = 3.16208e-18
DICPCG:  Solving for p, Initial residual = 0.000200679, Final residual = 9.8375e-07, No Iterations 499
time step continuity errors : sum local = 6.15847e-10, global = 5.17901e-20, cumulative = 3.21387e-18
smoothSolver:  Solving for epsilon, Initial residual = 0.000264536, Final residual = 4.03417e-08, No Iterations 1
smoothSolver:  Solving for k, Initial residual = 0.00348142, Final residual = 3.56378e-07, No Iterations 1
ExecutionTime = 23.77 s  ClockTime = 24 s

Time = 0.7

Courant Number mean: 0.00135795 max: 0.395782
smoothSolver:  Solving for Ux, Initial residual = 0.014465, Final residual = 5.74436e-07, No Iterations 1
smoothSolver:  Solving for Uy, Initial residual = 0.014465, Final residual = 5.77496e-07, No Iterations 1
smoothSolver:  Solving for Uz, Initial residual = 0.0391788, Final residual = 1.81122e-06, No Iterations 1
DICPCG:  Solving for p, Initial residual = 0.0164333, Final residual = 0.000196571, No Iterations 2
time step continuity errors : sum local = 1.21074e-07, global = 5.11067e-20, cumulative = 3.26498e-18
DICPCG:  Solving for p, Initial residual = 0.000199991, Final residual = 8.49435e-07, No Iterations 481
time step continuity errors : sum local = 5.16144e-10, global = 5.14105e-20, cumulative = 3.31639e-18
smoothSolver:  Solving for epsilon, Initial residual = 0.000258439, Final residual = 3.79836e-08, No Iterations 1
smoothSolver:  Solving for k, Initial residual = 0.00345604, Final residual = 3.35264e-07, No Iterations 1
ExecutionTime = 24.45 s  ClockTime = 24 s

Time = 0.725

Courant Number mean: 0.00131768 max: 0.400055
smoothSolver:  Solving for Ux, Initial residual = 0.0143688, Final residual = 5.68173e-07, No Iterations 1
smoothSolver:  Solving for Uy, Initial residual = 0.0143688, Final residual = 5.712e-07, No Iterations 1
smoothSolver:  Solving for Uz, Initial residual = 0.0374171, Final residual = 1.72317e-06, No Iterations 1
DICPCG:  Solving for p, Initial residual = 0.0163448, Final residual = 0.0001957, No Iterations 2
time step continuity errors : sum local = 1.16661e-07, global = 5.0711e-20, cumulative = 3.3671e-18
DICPCG:  Solving for p, Initial residual = 0.000199145, Final residual = 9.69123e-07, No Iterations 499
time step continuity errors : sum local = 5.68332e-10, global = 5.0422e-20, cumulative = 3.41752e-18
smoothSolver:  Solving for epsilon, Initial residual = 0.000252617, Final residual = 3.58545e-08, No Iterations 1
smoothSolver:  Solving for k, Initial residual = 0.00345425, Final residual = 3.16817e-07, No Iterations 1
ExecutionTime = 25.16 s  ClockTime = 25 s

Time = 0.75

Courant Number mean: 0.00127875 max: 0.402662
smoothSolver:  Solving for Ux, Initial residual = 0.0142746, Final residual = 5.62123e-07, No Iterations 1
smoothSolver:  Solving for Uy, Initial residual = 0.0142746, Final residual = 5.65124e-07, No Iterations 1
smoothSolver:  Solving for Uz, Initial residual = 0.0357643, Final residual = 1.64201e-06, No Iterations 1
DICPCG:  Solving for p, Initial residual = 0.0162704, Final residual = 0.000194466, No Iterations 2
time step continuity errors : sum local = 1.12212e-07, global = 4.9822e-20, cumulative = 3.46734e-18
DICPCG:  Solving for p, Initial residual = 0.000197872, Final residual = 9.84287e-07, No Iterations 499
time step continuity errors : sum local = 5.5884e-10, global = 4.98926e-20, cumulative = 3.51724e-18
smoothSolver:  Solving for epsilon, Initial residual = 0.000247077, Final residual = 3.39012e-08, No Iterations 1
smoothSolver:  Solving for k, Initial residual = 0.00346102, Final residual = 3.01373e-07, No Iterations 1
ExecutionTime = 25.94 s  ClockTime = 26 s

Time = 0.775

Courant Number mean: 0.00124113 max: 0.40342
smoothSolver:  Solving for Ux, Initial residual = 0.0141829, Final residual = 5.56118e-07, No Iterations 1
smoothSolver:  Solving for Uy, Initial residual = 0.0141828, Final residual = 5.59089e-07, No Iterations 1
smoothSolver:  Solving for Uz, Initial residual = 0.034236, Final residual = 1.56591e-06, No Iterations 1
DICPCG:  Solving for p, Initial residual = 0.0161966, Final residual = 0.000194272, No Iterations 2
time step continuity errors : sum local = 1.08526e-07, global = 4.9068e-20, cumulative = 3.5663e-18
DICPCG:  Solving for p, Initial residual = 0.00019765, Final residual = 9.95659e-07, No Iterations 247
time step continuity errors : sum local = 6.85579e-10, global = 4.89333e-20, cumulative = 3.61524e-18
smoothSolver:  Solving for epsilon, Initial residual = 0.000241747, Final residual = 3.21088e-08, No Iterations 1
smoothSolver:  Solving for k, Initial residual = 0.00347231, Final residual = 2.88031e-07, No Iterations 1
ExecutionTime = 26.43 s  ClockTime = 26 s

Time = 0.8

Courant Number mean: 0.00120477 max: 0.40216
smoothSolver:  Solving for Ux, Initial residual = 0.0140889, Final residual = 5.5011e-07, No Iterations 1
smoothSolver:  Solving for Uy, Initial residual = 0.0140889, Final residual = 5.53066e-07, No Iterations 1
smoothSolver:  Solving for Uz, Initial residual = 0.03289, Final residual = 1.49912e-06, No Iterations 1
DICPCG:  Solving for p, Initial residual = 0.0161089, Final residual = 0.000193118, No Iterations 2
time step continuity errors : sum local = 1.0466e-07, global = 4.87335e-20, cumulative = 3.66397e-18
DICPCG:  Solving for p, Initial residual = 0.000196511, Final residual = 9.69285e-07, No Iterations 462
time step continuity errors : sum local = 5.25876e-10, global = 4.84747e-20, cumulative = 3.71245e-18
smoothSolver:  Solving for epsilon, Initial residual = 0.000236641, Final residual = 3.04355e-08, No Iterations 1
smoothSolver:  Solving for k, Initial residual = 0.00348365, Final residual = 2.76321e-07, No Iterations 1
ExecutionTime = 27.35 s  ClockTime = 27 s

Time = 0.825

Courant Number mean: 0.00116967 max: 0.398776
smoothSolver:  Solving for Ux, Initial residual = 0.0139934, Final residual = 5.44269e-07, No Iterations 1
smoothSolver:  Solving for Uy, Initial residual = 0.0139934, Final residual = 5.47196e-07, No Iterations 1
smoothSolver:  Solving for Uz, Initial residual = 0.0312407, Final residual = 1.42433e-06, No Iterations 1
DICPCG:  Solving for p, Initial residual = 0.0160518, Final residual = 0.000192422, No Iterations 2
time step continuity errors : sum local = 1.00806e-07, global = 4.78421e-20, cumulative = 3.76029e-18
DICPCG:  Solving for p, Initial residual = 0.000195748, Final residual = 9.79235e-07, No Iterations 420
time step continuity errors : sum local = 5.48036e-10, global = 4.77088e-20, cumulative = 3.808e-18
smoothSolver:  Solving for epsilon, Initial residual = 0.000231752, Final residual = 2.88958e-08, No Iterations 1
smoothSolver:  Solving for k, Initial residual = 0.00349506, Final residual = 2.65814e-07, No Iterations 1
ExecutionTime = 28.2 s  ClockTime = 28 s

Time = 0.85

Courant Number mean: 0.00113576 max: 0.392976
smoothSolver:  Solving for Ux, Initial residual = 0.0138937, Final residual = 5.38359e-07, No Iterations 1
smoothSolver:  Solving for Uy, Initial residual = 0.0138937, Final residual = 5.41262e-07, No Iterations 1
smoothSolver:  Solving for Uz, Initial residual = 0.0301308, Final residual = 1.36834e-06, No Iterations 1
DICPCG:  Solving for p, Initial residual = 0.0159495, Final residual = 0.000191637, No Iterations 2
time step continuity errors : sum local = 9.72846e-08, global = 4.70441e-20, cumulative = 3.85504e-18
DICPCG:  Solving for p, Initial residual = 0.000194936, Final residual = 9.81088e-07, No Iterations 476
time step continuity errors : sum local = 4.93641e-10, global = 4.71456e-20, cumulative = 3.90219e-18
smoothSolver:  Solving for epsilon, Initial residual = 0.00022702, Final residual = 2.74245e-08, No Iterations 1
smoothSolver:  Solving for k, Initial residual = 0.00350778, Final residual = 2.56701e-07, No Iterations 1
ExecutionTime = 29.14 s  ClockTime = 29 s

Time = 0.875

Courant Number mean: 0.00110301 max: 0.384993
smoothSolver:  Solving for Ux, Initial residual = 0.0137954, Final residual = 5.32624e-07, No Iterations 1
smoothSolver:  Solving for Uy, Initial residual = 0.0137954, Final residual = 5.35509e-07, No Iterations 1
smoothSolver:  Solving for Uz, Initial residual = 0.0287839, Final residual = 1.30605e-06, No Iterations 1
DICPCG:  Solving for p, Initial residual = 0.0158785, Final residual = 0.000190264, No Iterations 2
time step continuity errors : sum local = 9.35029e-08, global = 4.6453e-20, cumulative = 3.94864e-18
DICPCG:  Solving for p, Initial residual = 0.00019352, Final residual = 8.52434e-07, No Iterations 497
time step continuity errors : sum local = 4.12314e-10, global = 4.61794e-20, cumulative = 3.99482e-18
smoothSolver:  Solving for epsilon, Initial residual = 0.000222446, Final residual = 2.60698e-08, No Iterations 1
smoothSolver:  Solving for k, Initial residual = 0.00352187, Final residual = 2.48561e-07, No Iterations 1
ExecutionTime = 29.89 s  ClockTime = 30 s

Time = 0.9

Courant Number mean: 0.00107137 max: 0.374684
smoothSolver:  Solving for Ux, Initial residual = 0.0136919, Final residual = 5.26888e-07, No Iterations 1
smoothSolver:  Solving for Uy, Initial residual = 0.0136918, Final residual = 5.29757e-07, No Iterations 1
smoothSolver:  Solving for Uz, Initial residual = 0.0276454, Final residual = 1.25095e-06, No Iterations 1
DICPCG:  Solving for p, Initial residual = 0.0157871, Final residual = 0.0001915, No Iterations 2
time step continuity errors : sum local = 9.12034e-08, global = 4.60464e-20, cumulative = 4.04087e-18
DICPCG:  Solving for p, Initial residual = 0.000194747, Final residual = 7.97323e-07, No Iterations 497
time step continuity errors : sum local = 3.73754e-10, global = 4.59051e-20, cumulative = 4.08677e-18
smoothSolver:  Solving for epsilon, Initial residual = 0.000218005, Final residual = 2.48018e-08, No Iterations 1
smoothSolver:  Solving for k, Initial residual = 0.00353593, Final residual = 2.41375e-07, No Iterations 1
ExecutionTime = 30.69 s  ClockTime = 31 s

Time = 0.925

Courant Number mean: 0.00104092 max: 0.362256
smoothSolver:  Solving for Ux, Initial residual = 0.0135872, Final residual = 5.21026e-07, No Iterations 1
smoothSolver:  Solving for Uy, Initial residual = 0.0135872, Final residual = 5.23866e-07, No Iterations 1
smoothSolver:  Solving for Uz, Initial residual = 0.0265143, Final residual = 1.19638e-06, No Iterations 1
DICPCG:  Solving for p, Initial residual = 0.0157079, Final residual = 0.000198213, No Iterations 2
time step continuity errors : sum local = 9.14967e-08, global = 4.54358e-20, cumulative = 4.13221e-18
DICPCG:  Solving for p, Initial residual = 0.000201409, Final residual = 8.96076e-07, No Iterations 497
time step continuity errors : sum local = 4.07206e-10, global = 4.52102e-20, cumulative = 4.17742e-18
smoothSolver:  Solving for epsilon, Initial residual = 0.000213666, Final residual = 2.35934e-08, No Iterations 1
smoothSolver:  Solving for k, Initial residual = 0.00354995, Final residual = 2.3497e-07, No Iterations 1
ExecutionTime = 31.42 s  ClockTime = 31 s

Time = 0.95

Courant Number mean: 0.00101167 max: 0.347863
smoothSolver:  Solving for Ux, Initial residual = 0.0134818, Final residual = 5.15066e-07, No Iterations 1
smoothSolver:  Solving for Uy, Initial residual = 0.0134818, Final residual = 5.17888e-07, No Iterations 1
smoothSolver:  Solving for Uz, Initial residual = 0.0254605, Final residual = 1.1457e-06, No Iterations 1
DICPCG:  Solving for p, Initial residual = 0.0156194, Final residual = 0.000204329, No Iterations 2
time step continuity errors : sum local = 9.14328e-08, global = 4.48383e-20, cumulative = 4.22225e-18
DICPCG:  Solving for p, Initial residual = 0.000207563, Final residual = 9.17719e-07, No Iterations 497
time step continuity errors : sum local = 4.04328e-10, global = 4.49119e-20, cumulative = 4.26717e-18
smoothSolver:  Solving for epsilon, Initial residual = 0.000209514, Final residual = 2.24463e-08, No Iterations 1
smoothSolver:  Solving for k, Initial residual = 0.00356377, Final residual = 2.29446e-07, No Iterations 1
ExecutionTime = 32.24 s  ClockTime = 32 s

Time = 0.975

Courant Number mean: 0.000983425 max: 0.331918
smoothSolver:  Solving for Ux, Initial residual = 0.0133748, Final residual = 5.0888e-07, No Iterations 1
smoothSolver:  Solving for Uy, Initial residual = 0.0133749, Final residual = 5.11694e-07, No Iterations 1
smoothSolver:  Solving for Uz, Initial residual = 0.0244428, Final residual = 1.09631e-06, No Iterations 1
DICPCG:  Solving for p, Initial residual = 0.0155388, Final residual = 0.000189244, No Iterations 2
time step continuity errors : sum local = 8.2106e-08, global = 4.42622e-20, cumulative = 4.31143e-18
DICPCG:  Solving for p, Initial residual = 0.000192506, Final residual = 8.7365e-07, No Iterations 480
time step continuity errors : sum local = 3.73327e-10, global = 4.42309e-20, cumulative = 4.35566e-18
smoothSolver:  Solving for epsilon, Initial residual = 0.000205482, Final residual = 2.1321e-08, No Iterations 1
smoothSolver:  Solving for k, Initial residual = 0.00357789, Final residual = 2.24269e-07, No Iterations 1
ExecutionTime = 33.43 s  ClockTime = 33 s

Time = 1

Courant Number mean: 0.000956126 max: 0.314765
smoothSolver:  Solving for Ux, Initial residual = 0.0132676, Final residual = 5.02949e-07, No Iterations 1
smoothSolver:  Solving for Uy, Initial residual = 0.0132676, Final residual = 5.05746e-07, No Iterations 1
smoothSolver:  Solving for Uz, Initial residual = 0.0234658, Final residual = 1.04846e-06, No Iterations 1
DICPCG:  Solving for p, Initial residual = 0.015445, Final residual = 0.000188585, No Iterations 2
time step continuity errors : sum local = 7.93422e-08, global = 4.38612e-20, cumulative = 4.39952e-18
DICPCG:  Solving for p, Initial residual = 0.000191785, Final residual = 8.60176e-07, No Iterations 497
time step continuity errors : sum local = 3.56296e-10, global = 4.37103e-20, cumulative = 4.44323e-18
smoothSolver:  Solving for epsilon, Initial residual = 0.000201595, Final residual = 2.02792e-08, No Iterations 1
smoothSolver:  Solving for k, Initial residual = 0.00359219, Final residual = 2.19668e-07, No Iterations 1
ExecutionTime = 34.46 s  ClockTime = 34 s

Time = 1.025

Courant Number mean: 0.000929889 max: 0.296507
smoothSolver:  Solving for Ux, Initial residual = 0.0131534, Final residual = 4.9696e-07, No Iterations 1
smoothSolver:  Solving for Uy, Initial residual = 0.0131534, Final residual = 4.99759e-07, No Iterations 1
smoothSolver:  Solving for Uz, Initial residual = 0.0225271, Final residual = 1.00253e-06, No Iterations 1
DICPCG:  Solving for p, Initial residual = 0.0153586, Final residual = 0.000187859, No Iterations 2
time step continuity errors : sum local = 7.66582e-08, global = 4.3267e-20, cumulative = 4.4865e-18
DICPCG:  Solving for p, Initial residual = 0.000191027, Final residual = 9.78537e-07, No Iterations 496
time step continuity errors : sum local = 3.93243e-10, global = 4.30981e-20, cumulative = 4.5296e-18
smoothSolver:  Solving for epsilon, Initial residual = 0.000197809, Final residual = 1.9282e-08, No Iterations 1
smoothSolver:  Solving for k, Initial residual = 0.00360641, Final residual = 2.15886e-07, No Iterations 1
ExecutionTime = 35.36 s  ClockTime = 35 s

Time = 1.05

Courant Number mean: 0.000904554 max: 0.277577
smoothSolver:  Solving for Ux, Initial residual = 0.0130381, Final residual = 4.9093e-07, No Iterations 1
smoothSolver:  Solving for Uy, Initial residual = 0.0130381, Final residual = 4.93726e-07, No Iterations 1
smoothSolver:  Solving for Uz, Initial residual = 0.0216381, Final residual = 9.5848e-07, No Iterations 1
DICPCG:  Solving for p, Initial residual = 0.0152673, Final residual = 0.00018548, No Iterations 2
time step continuity errors : sum local = 7.34233e-08, global = 4.26976e-20, cumulative = 4.57229e-18
DICPCG:  Solving for p, Initial residual = 0.000188553, Final residual = 9.55695e-07, No Iterations 495
time step continuity errors : sum local = 3.72626e-10, global = 4.27962e-20, cumulative = 4.61509e-18
smoothSolver:  Solving for epsilon, Initial residual = 0.000194137, Final residual = 1.83537e-08, No Iterations 1
smoothSolver:  Solving for k, Initial residual = 0.00362119, Final residual = 2.12665e-07, No Iterations 1
ExecutionTime = 36.19 s  ClockTime = 36 s

Time = 1.075

Courant Number mean: 0.000880347 max: 0.258288
smoothSolver:  Solving for Ux, Initial residual = 0.0129308, Final residual = 4.84997e-07, No Iterations 1
smoothSolver:  Solving for Uy, Initial residual = 0.0129308, Final residual = 4.87781e-07, No Iterations 1
smoothSolver:  Solving for Uz, Initial residual = 0.0207926, Final residual = 9.16463e-07, No Iterations 1
DICPCG:  Solving for p, Initial residual = 0.0151765, Final residual = 0.000190905, No Iterations 2
time step continuity errors : sum local = 7.33235e-08, global = 4.22093e-20, cumulative = 4.6573e-18
DICPCG:  Solving for p, Initial residual = 0.000193588, Final residual = 8.17943e-07, No Iterations 480
time step continuity errors : sum local = 3.09506e-10, global = 4.21434e-20, cumulative = 4.69944e-18
smoothSolver:  Solving for epsilon, Initial residual = 0.000190652, Final residual = 1.75002e-08, No Iterations 1
smoothSolver:  Solving for k, Initial residual = 0.00363648, Final residual = 2.09696e-07, No Iterations 1
ExecutionTime = 36.96 s  ClockTime = 37 s

Time = 1.1

Courant Number mean: 0.00085704 max: 0.239019
smoothSolver:  Solving for Ux, Initial residual = 0.0128158, Final residual = 4.79236e-07, No Iterations 1
smoothSolver:  Solving for Uy, Initial residual = 0.0128157, Final residual = 4.81984e-07, No Iterations 1
smoothSolver:  Solving for Uz, Initial residual = 0.0199927, Final residual = 8.7696e-07, No Iterations 1
DICPCG:  Solving for p, Initial residual = 0.0150848, Final residual = 0.000180434, No Iterations 2
time step continuity errors : sum local = 6.72529e-08, global = 4.17005e-20, cumulative = 4.74114e-18
DICPCG:  Solving for p, Initial residual = 0.000183366, Final residual = 8.3808e-07, No Iterations 496
time step continuity errors : sum local = 3.07658e-10, global = 4.15935e-20, cumulative = 4.78274e-18
smoothSolver:  Solving for epsilon, Initial residual = 0.000187281, Final residual = 1.66925e-08, No Iterations 1
smoothSolver:  Solving for k, Initial residual = 0.00365207, Final residual = 2.07059e-07, No Iterations 1
ExecutionTime = 37.84 s  ClockTime = 38 s

Time = 1.125

Courant Number mean: 0.000834496 max: 0.220128
smoothSolver:  Solving for Ux, Initial residual = 0.0127011, Final residual = 4.73499e-07, No Iterations 1
smoothSolver:  Solving for Uy, Initial residual = 0.012701, Final residual = 4.76224e-07, No Iterations 1
smoothSolver:  Solving for Uz, Initial residual = 0.0192344, Final residual = 8.39559e-07, No Iterations 1
DICPCG:  Solving for p, Initial residual = 0.014995, Final residual = 0.000180332, No Iterations 2
time step continuity errors : sum local = 6.52383e-08, global = 4.13662e-20, cumulative = 4.8241e-18
DICPCG:  Solving for p, Initial residual = 0.000183293, Final residual = 9.07485e-07, No Iterations 496
time step continuity errors : sum local = 3.23411e-10, global = 4.1422e-20, cumulative = 4.86552e-18
smoothSolver:  Solving for epsilon, Initial residual = 0.000184563, Final residual = 1.6018e-08, No Iterations 1
smoothSolver:  Solving for k, Initial residual = 0.00366787, Final residual = 2.0474e-07, No Iterations 1
ExecutionTime = 38.61 s  ClockTime = 39 s

Time = 1.15

Courant Number mean: 0.000812682 max: 0.201904
smoothSolver:  Solving for Ux, Initial residual = 0.0125904, Final residual = 4.67829e-07, No Iterations 1
smoothSolver:  Solving for Uy, Initial residual = 0.0125903, Final residual = 4.70531e-07, No Iterations 1
smoothSolver:  Solving for Uz, Initial residual = 0.0185107, Final residual = 8.04142e-07, No Iterations 1
DICPCG:  Solving for p, Initial residual = 0.0149034, Final residual = 0.000179753, No Iterations 2
time step continuity errors : sum local = 6.31291e-08, global = 4.09062e-20, cumulative = 4.90643e-18
DICPCG:  Solving for p, Initial residual = 0.000182722, Final residual = 9.7762e-07, No Iterations 482
time step continuity errors : sum local = 3.38239e-10, global = 4.08518e-20, cumulative = 4.94728e-18
smoothSolver:  Solving for epsilon, Initial residual = 0.000181976, Final residual = 1.54128e-08, No Iterations 1
smoothSolver:  Solving for k, Initial residual = 0.00368537, Final residual = 2.02829e-07, No Iterations 1
ExecutionTime = 39.47 s  ClockTime = 39 s

Time = 1.175

Courant Number mean: 0.000791578 max: 0.184538
smoothSolver:  Solving for Ux, Initial residual = 0.0124844, Final residual = 4.62269e-07, No Iterations 1
smoothSolver:  Solving for Uy, Initial residual = 0.0124843, Final residual = 4.64954e-07, No Iterations 1
smoothSolver:  Solving for Uz, Initial residual = 0.0178223, Final residual = 7.70668e-07, No Iterations 1
DICPCG:  Solving for p, Initial residual = 0.0148123, Final residual = 0.000180399, No Iterations 2
time step continuity errors : sum local = 6.15158e-08, global = 4.06076e-20, cumulative = 4.98789e-18
DICPCG:  Solving for p, Initial residual = 0.000183293, Final residual = 8.72113e-07, No Iterations 497
time step continuity errors : sum local = 2.93045e-10, global = 4.03118e-20, cumulative = 5.0282e-18
smoothSolver:  Solving for epsilon, Initial residual = 0.000179505, Final residual = 1.48657e-08, No Iterations 1
smoothSolver:  Solving for k, Initial residual = 0.00370486, Final residual = 2.01108e-07, No Iterations 1
ExecutionTime = 40.29 s  ClockTime = 40 s

Time = 1.2

Courant Number mean: 0.000771157 max: 0.177011
smoothSolver:  Solving for Ux, Initial residual = 0.0123805, Final residual = 4.56793e-07, No Iterations 1
smoothSolver:  Solving for Uy, Initial residual = 0.0123805, Final residual = 4.59468e-07, No Iterations 1
smoothSolver:  Solving for Uz, Initial residual = 0.0171662, Final residual = 7.38762e-07, No Iterations 1
DICPCG:  Solving for p, Initial residual = 0.0147187, Final residual = 0.000178873, No Iterations 2
time step continuity errors : sum local = 5.92348e-08, global = 4.01993e-20, cumulative = 5.0684e-18
DICPCG:  Solving for p, Initial residual = 0.000181778, Final residual = 8.65533e-07, No Iterations 477
time step continuity errors : sum local = 2.82687e-10, global = 3.99844e-20, cumulative = 5.10839e-18
smoothSolver:  Solving for epsilon, Initial residual = 0.000177078, Final residual = 1.43491e-08, No Iterations 1
smoothSolver:  Solving for k, Initial residual = 0.00372591, Final residual = 1.99483e-07, No Iterations 1
ExecutionTime = 41.15 s  ClockTime = 41 s

Time = 1.225

Courant Number mean: 0.000751632 max: 0.175227
smoothSolver:  Solving for Ux, Initial residual = 0.0122755, Final residual = 4.51428e-07, No Iterations 1
smoothSolver:  Solving for Uy, Initial residual = 0.0122754, Final residual = 4.54101e-07, No Iterations 1
smoothSolver:  Solving for Uz, Initial residual = 0.0165468, Final residual = 7.09002e-07, No Iterations 1
DICPCG:  Solving for p, Initial residual = 0.0146708, Final residual = 0.000191475, No Iterations 2
time step continuity errors : sum local = 6.15871e-08, global = 3.97913e-20, cumulative = 5.14818e-18
DICPCG:  Solving for p, Initial residual = 0.000194437, Final residual = 9.8226e-07, No Iterations 481
time step continuity errors : sum local = 3.1225e-10, global = 3.95909e-20, cumulative = 5.18777e-18
smoothSolver:  Solving for epsilon, Initial residual = 0.000174718, Final residual = 1.38563e-08, No Iterations 1
smoothSolver:  Solving for k, Initial residual = 0.00374709, Final residual = 1.98014e-07, No Iterations 1
ExecutionTime = 42.05 s  ClockTime = 42 s

Time = 1.25

Courant Number mean: 0.000732779 max: 0.173552
smoothSolver:  Solving for Ux, Initial residual = 0.0121742, Final residual = 4.46398e-07, No Iterations 1
smoothSolver:  Solving for Uy, Initial residual = 0.0121742, Final residual = 4.49135e-07, No Iterations 1
smoothSolver:  Solving for Uz, Initial residual = 0.0159531, Final residual = 6.80113e-07, No Iterations 1
DICPCG:  Solving for p, Initial residual = 0.0146922, Final residual = 0.000175539, No Iterations 2
time step continuity errors : sum local = 5.4841e-08, global = 3.93841e-20, cumulative = 5.22715e-18
DICPCG:  Solving for p, Initial residual = 0.000178242, Final residual = 9.74542e-07, No Iterations 497
time step continuity errors : sum local = 2.99954e-10, global = 3.95517e-20, cumulative = 5.2667e-18
smoothSolver:  Solving for epsilon, Initial residual = 0.000172416, Final residual = 1.33775e-08, No Iterations 1
smoothSolver:  Solving for k, Initial residual = 0.00376832, Final residual = 1.96845e-07, No Iterations 1
ExecutionTime = 42.84 s  ClockTime = 43 s

Time = 1.275

Courant Number mean: 0.000714545 max: 0.171852
smoothSolver:  Solving for Ux, Initial residual = 0.0120815, Final residual = 4.41592e-07, No Iterations 1
smoothSolver:  Solving for Uy, Initial residual = 0.0120814, Final residual = 4.44346e-07, No Iterations 1
smoothSolver:  Solving for Uz, Initial residual = 0.0153675, Final residual = 6.52592e-07, No Iterations 1
DICPCG:  Solving for p, Initial residual = 0.0145923, Final residual = 0.000171504, No Iterations 2
time step continuity errors : sum local = 5.20422e-08, global = 3.91833e-20, cumulative = 5.30589e-18
DICPCG:  Solving for p, Initial residual = 0.000174138, Final residual = 8.7535e-07, No Iterations 495
time step continuity errors : sum local = 2.6178e-10, global = 3.88799e-20, cumulative = 5.34477e-18
smoothSolver:  Solving for epsilon, Initial residual = 0.000170167, Final residual = 1.29394e-08, No Iterations 1
smoothSolver:  Solving for k, Initial residual = 0.00378961, Final residual = 1.95489e-07, No Iterations 1
ExecutionTime = 43.72 s  ClockTime = 44 s

Time = 1.3

Courant Number mean: 0.000697024 max: 0.170083
smoothSolver:  Solving for Ux, Initial residual = 0.0119865, Final residual = 4.36657e-07, No Iterations 1
smoothSolver:  Solving for Uy, Initial residual = 0.0119864, Final residual = 4.39414e-07, No Iterations 1
smoothSolver:  Solving for Uz, Initial residual = 0.0148284, Final residual = 6.26752e-07, No Iterations 1
DICPCG:  Solving for p, Initial residual = 0.0145109, Final residual = 0.000173638, No Iterations 2
time step continuity errors : sum local = 5.11903e-08, global = 3.87009e-20, cumulative = 5.38347e-18
DICPCG:  Solving for p, Initial residual = 0.000176283, Final residual = 9.67337e-07, No Iterations 494
time step continuity errors : sum local = 2.81119e-10, global = 3.86505e-20, cumulative = 5.42212e-18
smoothSolver:  Solving for epsilon, Initial residual = 0.000168007, Final residual = 1.2503e-08, No Iterations 1
smoothSolver:  Solving for k, Initial residual = 0.00381102, Final residual = 1.94508e-07, No Iterations 1
ExecutionTime = 44.53 s  ClockTime = 44 s

Time = 1.325

Courant Number mean: 0.000680038 max: 0.168249
smoothSolver:  Solving for Ux, Initial residual = 0.0118912, Final residual = 4.31609e-07, No Iterations 1
smoothSolver:  Solving for Uy, Initial residual = 0.0118911, Final residual = 4.34376e-07, No Iterations 1
smoothSolver:  Solving for Uz, Initial residual = 0.0143156, Final residual = 6.02867e-07, No Iterations 1
DICPCG:  Solving for p, Initial residual = 0.0144233, Final residual = 0.000170366, No Iterations 2
time step continuity errors : sum local = 4.88059e-08, global = 3.84383e-20, cumulative = 5.46056e-18
DICPCG:  Solving for p, Initial residual = 0.00017296, Final residual = 9.28627e-07, No Iterations 496
time step continuity errors : sum local = 2.62219e-10, global = 3.84016e-20, cumulative = 5.49896e-18
smoothSolver:  Solving for epsilon, Initial residual = 0.000165891, Final residual = 1.2094e-08, No Iterations 1
smoothSolver:  Solving for k, Initial residual = 0.0038326, Final residual = 1.9357e-07, No Iterations 1
ExecutionTime = 45.27 s  ClockTime = 45 s

Time = 1.35

Courant Number mean: 0.000663574 max: 0.166355
smoothSolver:  Solving for Ux, Initial residual = 0.0117919, Final residual = 4.26533e-07, No Iterations 1
smoothSolver:  Solving for Uy, Initial residual = 0.0117918, Final residual = 4.29304e-07, No Iterations 1
smoothSolver:  Solving for Uz, Initial residual = 0.0138325, Final residual = 5.80195e-07, No Iterations 1
DICPCG:  Solving for p, Initial residual = 0.0143481, Final residual = 0.000168838, No Iterations 2
time step continuity errors : sum local = 4.70097e-08, global = 3.80468e-20, cumulative = 5.53701e-18
DICPCG:  Solving for p, Initial residual = 0.000171379, Final residual = 9.85888e-07, No Iterations 496
time step continuity errors : sum local = 2.70609e-10, global = 3.80891e-20, cumulative = 5.57509e-18
smoothSolver:  Solving for epsilon, Initial residual = 0.00016386, Final residual = 1.1716e-08, No Iterations 1
smoothSolver:  Solving for k, Initial residual = 0.00385431, Final residual = 1.92745e-07, No Iterations 1
ExecutionTime = 45.97 s  ClockTime = 46 s

Time = 1.375

Courant Number mean: 0.000647624 max: 0.164436
smoothSolver:  Solving for Ux, Initial residual = 0.0116894, Final residual = 4.21426e-07, No Iterations 1
smoothSolver:  Solving for Uy, Initial residual = 0.0116894, Final residual = 4.242e-07, No Iterations 1
smoothSolver:  Solving for Uz, Initial residual = 0.0133715, Final residual = 5.58432e-07, No Iterations 1
DICPCG:  Solving for p, Initial residual = 0.0142608, Final residual = 0.000167601, No Iterations 2
time step continuity errors : sum local = 4.5363e-08, global = 3.76668e-20, cumulative = 5.61276e-18
DICPCG:  Solving for p, Initial residual = 0.000170111, Final residual = 9.83683e-07, No Iterations 243
time step continuity errors : sum local = 3.17201e-10, global = 3.77099e-20, cumulative = 5.65047e-18
smoothSolver:  Solving for epsilon, Initial residual = 0.000161868, Final residual = 1.13512e-08, No Iterations 1
smoothSolver:  Solving for k, Initial residual = 0.00387619, Final residual = 1.91906e-07, No Iterations 1
ExecutionTime = 46.46 s  ClockTime = 46 s

Time = 1.4

Courant Number mean: 0.000632155 max: 0.163837
smoothSolver:  Solving for Ux, Initial residual = 0.011586, Final residual = 4.16364e-07, No Iterations 1
smoothSolver:  Solving for Uy, Initial residual = 0.0115859, Final residual = 4.19125e-07, No Iterations 1
smoothSolver:  Solving for Uz, Initial residual = 0.0129752, Final residual = 5.39275e-07, No Iterations 1
DICPCG:  Solving for p, Initial residual = 0.014164, Final residual = 0.000166935, No Iterations 2
time step continuity errors : sum local = 4.40091e-08, global = 3.75052e-20, cumulative = 5.68798e-18
DICPCG:  Solving for p, Initial residual = 0.000169408, Final residual = 9.6303e-07, No Iterations 454
time step continuity errors : sum local = 2.54238e-10, global = 3.72584e-20, cumulative = 5.72523e-18
smoothSolver:  Solving for epsilon, Initial residual = 0.000159909, Final residual = 1.1008e-08, No Iterations 1
smoothSolver:  Solving for k, Initial residual = 0.00389824, Final residual = 1.91174e-07, No Iterations 1
ExecutionTime = 47.14 s  ClockTime = 47 s

Time = 1.425

Courant Number mean: 0.000617153 max: 0.162831
smoothSolver:  Solving for Ux, Initial residual = 0.011482, Final residual = 4.11367e-07, No Iterations 1
smoothSolver:  Solving for Uy, Initial residual = 0.0114819, Final residual = 4.14102e-07, No Iterations 1
smoothSolver:  Solving for Uz, Initial residual = 0.0124624, Final residual = 5.17453e-07, No Iterations 1
DICPCG:  Solving for p, Initial residual = 0.0141156, Final residual = 0.000165291, No Iterations 2
time step continuity errors : sum local = 4.23023e-08, global = 3.71288e-20, cumulative = 5.76236e-18
DICPCG:  Solving for p, Initial residual = 0.000167719, Final residual = 9.23567e-07, No Iterations 303
time step continuity errors : sum local = 2.51033e-10, global = 3.70331e-20, cumulative = 5.7994e-18
smoothSolver:  Solving for epsilon, Initial residual = 0.000157984, Final residual = 1.06837e-08, No Iterations 1
smoothSolver:  Solving for k, Initial residual = 0.00392061, Final residual = 1.90471e-07, No Iterations 1
ExecutionTime = 47.84 s  ClockTime = 48 s

Time = 1.45

Courant Number mean: 0.000602597 max: 0.161596
smoothSolver:  Solving for Ux, Initial residual = 0.0113755, Final residual = 4.06318e-07, No Iterations 1
smoothSolver:  Solving for Uy, Initial residual = 0.0113754, Final residual = 4.09051e-07, No Iterations 1
smoothSolver:  Solving for Uz, Initial residual = 0.0121447, Final residual = 5.01753e-07, No Iterations 1
DICPCG:  Solving for p, Initial residual = 0.0140252, Final residual = 0.000164175, No Iterations 2
time step continuity errors : sum local = 4.08841e-08, global = 3.68557e-20, cumulative = 5.83625e-18
DICPCG:  Solving for p, Initial residual = 0.000166597, Final residual = 8.74378e-07, No Iterations 481
time step continuity errors : sum local = 2.14591e-10, global = 3.67251e-20, cumulative = 5.87298e-18
smoothSolver:  Solving for epsilon, Initial residual = 0.000156088, Final residual = 1.03733e-08, No Iterations 1
smoothSolver:  Solving for k, Initial residual = 0.00394329, Final residual = 1.89889e-07, No Iterations 1
ExecutionTime = 48.56 s  ClockTime = 49 s

Time = 1.475

Courant Number mean: 0.000588478 max: 0.160149
smoothSolver:  Solving for Ux, Initial residual = 0.0112685, Final residual = 4.01282e-07, No Iterations 1
smoothSolver:  Solving for Uy, Initial residual = 0.0112684, Final residual = 4.04008e-07, No Iterations 1
smoothSolver:  Solving for Uz, Initial residual = 0.0117032, Final residual = 4.82103e-07, No Iterations 1
DICPCG:  Solving for p, Initial residual = 0.0139585, Final residual = 0.000163925, No Iterations 2
time step continuity errors : sum local = 3.96815e-08, global = 3.65741e-20, cumulative = 5.90955e-18
DICPCG:  Solving for p, Initial residual = 0.000166347, Final residual = 9.86772e-07, No Iterations 246
time step continuity errors : sum local = 2.67075e-10, global = 3.66479e-20, cumulative = 5.9462e-18
smoothSolver:  Solving for epsilon, Initial residual = 0.000154234, Final residual = 1.00782e-08, No Iterations 1
smoothSolver:  Solving for k, Initial residual = 0.00396619, Final residual = 1.89273e-07, No Iterations 1
ExecutionTime = 49.04 s  ClockTime = 49 s

Time = 1.5

Courant Number mean: 0.000574777 max: 0.158501
smoothSolver:  Solving for Ux, Initial residual = 0.0111588, Final residual = 3.9623e-07, No Iterations 1
smoothSolver:  Solving for Uy, Initial residual = 0.0111587, Final residual = 3.98952e-07, No Iterations 1
smoothSolver:  Solving for Uz, Initial residual = 0.0113969, Final residual = 4.67112e-07, No Iterations 1
DICPCG:  Solving for p, Initial residual = 0.0138721, Final residual = 0.000162349, No Iterations 2
time step continuity errors : sum local = 3.82803e-08, global = 3.64167e-20, cumulative = 5.98262e-18
DICPCG:  Solving for p, Initial residual = 0.000164773, Final residual = 9.3254e-07, No Iterations 495
time step continuity errors : sum local = 2.166e-10, global = 3.62874e-20, cumulative = 6.0189e-18
smoothSolver:  Solving for epsilon, Initial residual = 0.000152423, Final residual = 9.80003e-09, No Iterations 1
smoothSolver:  Solving for k, Initial residual = 0.00398939, Final residual = 1.88759e-07, No Iterations 1
ExecutionTime = 49.96 s  ClockTime = 50 s

Time = 1.525

Courant Number mean: 0.000561483 max: 0.156658
smoothSolver:  Solving for Ux, Initial residual = 0.0110493, Final residual = 3.91209e-07, No Iterations 1
smoothSolver:  Solving for Uy, Initial residual = 0.0110492, Final residual = 3.93923e-07, No Iterations 1
smoothSolver:  Solving for Uz, Initial residual = 0.0109774, Final residual = 4.488e-07, No Iterations 1
DICPCG:  Solving for p, Initial residual = 0.0138013, Final residual = 0.000160481, No Iterations 2
time step continuity errors : sum local = 3.67755e-08, global = 3.60488e-20, cumulative = 6.05495e-18
DICPCG:  Solving for p, Initial residual = 0.000162825, Final residual = 9.72225e-07, No Iterations 252
time step continuity errors : sum local = 2.40894e-10, global = 3.58658e-20, cumulative = 6.09082e-18
smoothSolver:  Solving for epsilon, Initial residual = 0.000150648, Final residual = 9.53204e-09, No Iterations 1
smoothSolver:  Solving for k, Initial residual = 0.00401289, Final residual = 1.882e-07, No Iterations 1
ExecutionTime = 50.42 s  ClockTime = 50 s

Time = 1.55

Courant Number mean: 0.00054858 max: 0.15465
smoothSolver:  Solving for Ux, Initial residual = 0.0109388, Final residual = 3.86261e-07, No Iterations 1
smoothSolver:  Solving for Uy, Initial residual = 0.0109388, Final residual = 3.88969e-07, No Iterations 1
smoothSolver:  Solving for Uz, Initial residual = 0.010703, Final residual = 4.3515e-07, No Iterations 1
DICPCG:  Solving for p, Initial residual = 0.0137139, Final residual = 0.000159553, No Iterations 2
time step continuity errors : sum local = 3.56046e-08, global = 3.56864e-20, cumulative = 6.1265e-18
DICPCG:  Solving for p, Initial residual = 0.000161829, Final residual = 9.54175e-07, No Iterations 496
time step continuity errors : sum local = 2.09824e-10, global = 3.57675e-20, cumulative = 6.16227e-18
smoothSolver:  Solving for epsilon, Initial residual = 0.000148915, Final residual = 9.2825e-09, No Iterations 1
smoothSolver:  Solving for k, Initial residual = 0.00403661, Final residual = 1.87762e-07, No Iterations 1
ExecutionTime = 51.23 s  ClockTime = 51 s

Time = 1.575

Courant Number mean: 0.000536058 max: 0.152497
smoothSolver:  Solving for Ux, Initial residual = 0.0108298, Final residual = 3.81395e-07, No Iterations 1
smoothSolver:  Solving for Uy, Initial residual = 0.0108297, Final residual = 3.841e-07, No Iterations 1
smoothSolver:  Solving for Uz, Initial residual = 0.0103272, Final residual = 4.1926e-07, No Iterations 1
DICPCG:  Solving for p, Initial residual = 0.0136507, Final residual = 0.000158678, No Iterations 2
time step continuity errors : sum local = 3.44293e-08, global = 3.56335e-20, cumulative = 6.19791e-18
DICPCG:  Solving for p, Initial residual = 0.000160928, Final residual = 9.29385e-07, No Iterations 277
time step continuity errors : sum local = 2.23891e-10, global = 3.56299e-20, cumulative = 6.23354e-18
smoothSolver:  Solving for epsilon, Initial residual = 0.000147253, Final residual = 9.04838e-09, No Iterations 1
smoothSolver:  Solving for k, Initial residual = 0.00406059, Final residual = 1.8729e-07, No Iterations 1
ExecutionTime = 51.77 s  ClockTime = 52 s

Time = 1.6

Courant Number mean: 0.000523901 max: 0.15022
smoothSolver:  Solving for Ux, Initial residual = 0.0107202, Final residual = 3.76619e-07, No Iterations 1
smoothSolver:  Solving for Uy, Initial residual = 0.0107201, Final residual = 3.79317e-07, No Iterations 1
smoothSolver:  Solving for Uz, Initial residual = 0.0100687, Final residual = 4.06651e-07, No Iterations 1
DICPCG:  Solving for p, Initial residual = 0.0135742, Final residual = 0.000160633, No Iterations 2
time step continuity errors : sum local = 3.3958e-08, global = 3.50358e-20, cumulative = 6.26857e-18
DICPCG:  Solving for p, Initial residual = 0.000162777, Final residual = 9.91829e-07, No Iterations 494
time step continuity errors : sum local = 2.06603e-10, global = 3.51284e-20, cumulative = 6.3037e-18
smoothSolver:  Solving for epsilon, Initial residual = 0.000145625, Final residual = 8.82961e-09, No Iterations 1
smoothSolver:  Solving for k, Initial residual = 0.00408493, Final residual = 1.86893e-07, No Iterations 1
ExecutionTime = 52.54 s  ClockTime = 53 s

Time = 1.625

Courant Number mean: 0.000512119 max: 0.147827
smoothSolver:  Solving for Ux, Initial residual = 0.0106111, Final residual = 3.71593e-07, No Iterations 1
smoothSolver:  Solving for Uy, Initial residual = 0.010611, Final residual = 3.74258e-07, No Iterations 1
smoothSolver:  Solving for Uz, Initial residual = 0.00972051, Final residual = 3.91729e-07, No Iterations 1
DICPCG:  Solving for p, Initial residual = 0.0135317, Final residual = 0.00015755, No Iterations 2
time step continuity errors : sum local = 3.23867e-08, global = 3.49582e-20, cumulative = 6.33866e-18
DICPCG:  Solving for p, Initial residual = 0.000159747, Final residual = 9.19519e-07, No Iterations 251
time step continuity errors : sum local = 2.08271e-10, global = 3.51845e-20, cumulative = 6.37384e-18
smoothSolver:  Solving for epsilon, Initial residual = 0.00014403, Final residual = 8.62165e-09, No Iterations 1
smoothSolver:  Solving for k, Initial residual = 0.00410966, Final residual = 1.86517e-07, No Iterations 1
ExecutionTime = 52.97 s  ClockTime = 53 s

Time = 1.65

Courant Number mean: 0.000500719 max: 0.145406
smoothSolver:  Solving for Ux, Initial residual = 0.0105003, Final residual = 3.66701e-07, No Iterations 1
smoothSolver:  Solving for Uy, Initial residual = 0.0105002, Final residual = 3.69352e-07, No Iterations 1
smoothSolver:  Solving for Uz, Initial residual = 0.00948557, Final residual = 3.80422e-07, No Iterations 1
DICPCG:  Solving for p, Initial residual = 0.0134567, Final residual = 0.000160235, No Iterations 2
time step continuity errors : sum local = 3.20942e-08, global = 3.47711e-20, cumulative = 6.40861e-18
DICPCG:  Solving for p, Initial residual = 0.000162329, Final residual = 8.28557e-07, No Iterations 496
time step continuity errors : sum local = 1.6357e-10, global = 3.47552e-20, cumulative = 6.44337e-18
smoothSolver:  Solving for epsilon, Initial residual = 0.000142474, Final residual = 8.4243e-09, No Iterations 1
smoothSolver:  Solving for k, Initial residual = 0.00413495, Final residual = 1.86221e-07, No Iterations 1
ExecutionTime = 53.65 s  ClockTime = 54 s

Time = 1.675

Courant Number mean: 0.000489651 max: 0.142911
smoothSolver:  Solving for Ux, Initial residual = 0.0103877, Final residual = 3.61663e-07, No Iterations 1
smoothSolver:  Solving for Uy, Initial residual = 0.0103876, Final residual = 3.64278e-07, No Iterations 1
smoothSolver:  Solving for Uz, Initial residual = 0.00916536, Final residual = 3.66901e-07, No Iterations 1
DICPCG:  Solving for p, Initial residual = 0.0134153, Final residual = 0.000155049, No Iterations 2
time step continuity errors : sum local = 3.02062e-08, global = 3.45905e-20, cumulative = 6.47796e-18
DICPCG:  Solving for p, Initial residual = 0.000157177, Final residual = 9.68791e-07, No Iterations 361
time step continuity errors : sum local = 2.01706e-10, global = 3.48281e-20, cumulative = 6.51279e-18
smoothSolver:  Solving for epsilon, Initial residual = 0.000140973, Final residual = 8.23881e-09, No Iterations 1
smoothSolver:  Solving for k, Initial residual = 0.00416151, Final residual = 1.85973e-07, No Iterations 1
ExecutionTime = 54.22 s  ClockTime = 54 s

Time = 1.7

Courant Number mean: 0.000478899 max: 0.140356
smoothSolver:  Solving for Ux, Initial residual = 0.0102717, Final residual = 3.56702e-07, No Iterations 1
smoothSolver:  Solving for Uy, Initial residual = 0.0102717, Final residual = 3.5929e-07, No Iterations 1
smoothSolver:  Solving for Uz, Initial residual = 0.00894615, Final residual = 3.56206e-07, No Iterations 1
DICPCG:  Solving for p, Initial residual = 0.0133549, Final residual = 0.000154602, No Iterations 2
time step continuity errors : sum local = 2.93472e-08, global = 3.43418e-20, cumulative = 6.54713e-18
DICPCG:  Solving for p, Initial residual = 0.000156716, Final residual = 9.98398e-07, No Iterations 495
time step continuity errors : sum local = 1.86833e-10, global = 3.43334e-20, cumulative = 6.58146e-18
smoothSolver:  Solving for epsilon, Initial residual = 0.000139502, Final residual = 8.06047e-09, No Iterations 1
smoothSolver:  Solving for k, Initial residual = 0.00418845, Final residual = 1.85796e-07, No Iterations 1
ExecutionTime = 54.92 s  ClockTime = 55 s

Time = 1.725

Courant Number mean: 0.000468489 max: 0.137755
smoothSolver:  Solving for Ux, Initial residual = 0.0101542, Final residual = 3.51819e-07, No Iterations 1
smoothSolver:  Solving for Uy, Initial residual = 0.0101541, Final residual = 3.54396e-07, No Iterations 1
smoothSolver:  Solving for Uz, Initial residual = 0.00866033, Final residual = 3.43785e-07, No Iterations 1
DICPCG:  Solving for p, Initial residual = 0.0133157, Final residual = 0.000155584, No Iterations 2
time step continuity errors : sum local = 2.87351e-08, global = 3.41746e-20, cumulative = 6.61564e-18
DICPCG:  Solving for p, Initial residual = 0.000157704, Final residual = 9.35026e-07, No Iterations 291
time step continuity errors : sum local = 1.89942e-10, global = 3.42627e-20, cumulative = 6.6499e-18
smoothSolver:  Solving for epsilon, Initial residual = 0.000138058, Final residual = 7.89187e-09, No Iterations 1
smoothSolver:  Solving for k, Initial residual = 0.0042158, Final residual = 1.8556e-07, No Iterations 1
ExecutionTime = 55.39 s  ClockTime = 55 s

Time = 1.75

Courant Number mean: 0.000458363 max: 0.135125
smoothSolver:  Solving for Ux, Initial residual = 0.0100386, Final residual = 3.47177e-07, No Iterations 1
smoothSolver:  Solving for Uy, Initial residual = 0.0100385, Final residual = 3.49735e-07, No Iterations 1
smoothSolver:  Solving for Uz, Initial residual = 0.00845596, Final residual = 3.33956e-07, No Iterations 1
DICPCG:  Solving for p, Initial residual = 0.0132492, Final residual = 0.000152318, No Iterations 2
time step continuity errors : sum local = 2.7426e-08, global = 3.39124e-20, cumulative = 6.68381e-18
DICPCG:  Solving for p, Initial residual = 0.000154321, Final residual = 9.71066e-07, No Iterations 472
time step continuity errors : sum local = 1.72808e-10, global = 3.40533e-20, cumulative = 6.71787e-18
smoothSolver:  Solving for epsilon, Initial residual = 0.000136653, Final residual = 7.72843e-09, No Iterations 1
smoothSolver:  Solving for k, Initial residual = 0.00424341, Final residual = 1.85397e-07, No Iterations 1
ExecutionTime = 56.07 s  ClockTime = 56 s

Time = 1.775

Courant Number mean: 0.000448542 max: 0.132477
smoothSolver:  Solving for Ux, Initial residual = 0.00992261, Final residual = 3.42436e-07, No Iterations 1
smoothSolver:  Solving for Uy, Initial residual = 0.00992258, Final residual = 3.44927e-07, No Iterations 1
smoothSolver:  Solving for Uz, Initial residual = 0.00818174, Final residual = 3.22191e-07, No Iterations 1
DICPCG:  Solving for p, Initial residual = 0.013216, Final residual = 0.000155453, No Iterations 2
time step continuity errors : sum local = 2.72346e-08, global = 3.37895e-20, cumulative = 6.75166e-18
DICPCG:  Solving for p, Initial residual = 0.000157396, Final residual = 9.52442e-07, No Iterations 248
time step continuity errors : sum local = 1.8138e-10, global = 3.36675e-20, cumulative = 6.78532e-18
smoothSolver:  Solving for epsilon, Initial residual = 0.000135287, Final residual = 7.56669e-09, No Iterations 1
smoothSolver:  Solving for k, Initial residual = 0.00427109, Final residual = 1.85167e-07, No Iterations 1
ExecutionTime = 56.51 s  ClockTime = 56 s

Time = 1.8

Courant Number mean: 0.000439063 max: 0.12982
smoothSolver:  Solving for Ux, Initial residual = 0.00980965, Final residual = 3.37699e-07, No Iterations 1
smoothSolver:  Solving for Uy, Initial residual = 0.00980964, Final residual = 3.4009e-07, No Iterations 1
smoothSolver:  Solving for Uz, Initial residual = 0.0079974, Final residual = 3.13164e-07, No Iterations 1
DICPCG:  Solving for p, Initial residual = 0.0131639, Final residual = 0.000153577, No Iterations 2
time step continuity errors : sum local = 2.62305e-08, global = 3.35831e-20, cumulative = 6.81891e-18
DICPCG:  Solving for p, Initial residual = 0.000155606, Final residual = 9.46609e-07, No Iterations 462
time step continuity errors : sum local = 1.59541e-10, global = 3.35734e-20, cumulative = 6.85248e-18
smoothSolver:  Solving for epsilon, Initial residual = 0.000133973, Final residual = 7.41388e-09, No Iterations 1
smoothSolver:  Solving for k, Initial residual = 0.00429903, Final residual = 1.85089e-07, No Iterations 1
ExecutionTime = 57.18 s  ClockTime = 57 s

Time = 1.825

Courant Number mean: 0.000429885 max: 0.127163
smoothSolver:  Solving for Ux, Initial residual = 0.00970149, Final residual = 3.33085e-07, No Iterations 1
smoothSolver:  Solving for Uy, Initial residual = 0.00970135, Final residual = 3.35396e-07, No Iterations 1
smoothSolver:  Solving for Uz, Initial residual = 0.0077432, Final residual = 3.02469e-07, No Iterations 1
DICPCG:  Solving for p, Initial residual = 0.0131249, Final residual = 0.000157322, No Iterations 2
time step continuity errors : sum local = 2.61501e-08, global = 3.34229e-20, cumulative = 6.8859e-18
DICPCG:  Solving for p, Initial residual = 0.000159343, Final residual = 9.99743e-07, No Iterations 297
time step continuity errors : sum local = 1.80666e-10, global = 3.34742e-20, cumulative = 6.91938e-18
smoothSolver:  Solving for epsilon, Initial residual = 0.000132715, Final residual = 7.26659e-09, No Iterations 1
smoothSolver:  Solving for k, Initial residual = 0.00432736, Final residual = 1.84901e-07, No Iterations 1
ExecutionTime = 57.66 s  ClockTime = 58 s

Time = 1.85

Courant Number mean: 0.000420966 max: 0.124514
smoothSolver:  Solving for Ux, Initial residual = 0.009593, Final residual = 3.28688e-07, No Iterations 1
smoothSolver:  Solving for Uy, Initial residual = 0.00959294, Final residual = 3.30919e-07, No Iterations 1
smoothSolver:  Solving for Uz, Initial residual = 0.0075713, Final residual = 2.94212e-07, No Iterations 1
DICPCG:  Solving for p, Initial residual = 0.0130628, Final residual = 0.000149644, No Iterations 2
time step continuity errors : sum local = 2.42581e-08, global = 3.31123e-20, cumulative = 6.95249e-18
DICPCG:  Solving for p, Initial residual = 0.000151612, Final residual = 9.05956e-07, No Iterations 446
time step continuity errors : sum local = 1.4513e-10, global = 3.30004e-20, cumulative = 6.98549e-18
smoothSolver:  Solving for epsilon, Initial residual = 0.000131501, Final residual = 7.12771e-09, No Iterations 1
smoothSolver:  Solving for k, Initial residual = 0.00435604, Final residual = 1.84935e-07, No Iterations 1
ExecutionTime = 58.45 s  ClockTime = 58 s

Time = 1.875

Courant Number mean: 0.000412292 max: 0.121876
smoothSolver:  Solving for Ux, Initial residual = 0.00948783, Final residual = 3.24339e-07, No Iterations 1
smoothSolver:  Solving for Uy, Initial residual = 0.00948775, Final residual = 3.2652e-07, No Iterations 1
smoothSolver:  Solving for Uz, Initial residual = 0.00733656, Final residual = 2.84262e-07, No Iterations 1
[...]
smoothSolver:  Solving for Uy, Initial residual = 0.00452463, Final residual = 1.05847e-07, No Iterations 1
smoothSolver:  Solving for Uz, Initial residual = 0.00114218, Final residual = 2.49395e-08, No Iterations 1
DICPCG:  Solving for p, Initial residual = 0.00923062, Final residual = 0.000123578, No Iterations 2
time step continuity errors : sum local = 1.89411e-09, global = 1.81962e-20, cumulative = 1.23571e-17
DICPCG:  Solving for p, Initial residual = 0.00012444, Final residual = 9.78222e-07, No Iterations 140
time step continuity errors : sum local = 1.57959e-11, global = 1.81734e-20, cumulative = 1.23753e-17
smoothSolver:  Solving for epsilon, Initial residual = 0.000112831, Final residual = 3.97219e-09, No Iterations 1
smoothSolver:  Solving for k, Initial residual = 0.00359681, Final residual = 1.17553e-07, No Iterations 1
ExecutionTime = 130.07 s  ClockTime = 130 s

Time = 4.575

Courant Number mean: 9.19853e-05 max: 0.0297865
smoothSolver:  Solving for Ux, Initial residual = 0.0044959, Final residual = 1.04414e-07, No Iterations 1
smoothSolver:  Solving for Uy, Initial residual = 0.00449599, Final residual = 1.05002e-07, No Iterations 1
smoothSolver:  Solving for Uz, Initial residual = 0.00113882, Final residual = 2.46963e-08, No Iterations 1
DICPCG:  Solving for p, Initial residual = 0.00931825, Final residual = 0.000122244, No Iterations 2
time step continuity errors : sum local = 1.841e-09, global = 1.81453e-20, cumulative = 1.23934e-17
DICPCG:  Solving for p, Initial residual = 0.000123098, Final residual = 8.97172e-07, No Iterations 500
time step continuity errors : sum local = 1.33871e-11, global = 1.81409e-20, cumulative = 1.24115e-17
smoothSolver:  Solving for epsilon, Initial residual = 0.000113722, Final residual = 3.98417e-09, No Iterations 1
smoothSolver:  Solving for k, Initial residual = 0.00356925, Final residual = 1.1655e-07, No Iterations 1
ExecutionTime = 130.87 s  ClockTime = 131 s

Time = 4.6

Courant Number mean: 9.12447e-05 max: 0.0295713
smoothSolver:  Solving for Ux, Initial residual = 0.00446678, Final residual = 1.03531e-07, No Iterations 1
smoothSolver:  Solving for Uy, Initial residual = 0.00446677, Final residual = 1.04142e-07, No Iterations 1
smoothSolver:  Solving for Uz, Initial residual = 0.00112643, Final residual = 2.43686e-08, No Iterations 1
DICPCG:  Solving for p, Initial residual = 0.0093546, Final residual = 0.00012538, No Iterations 2
time step continuity errors : sum local = 1.85442e-09, global = 1.79757e-20, cumulative = 1.24295e-17
DICPCG:  Solving for p, Initial residual = 0.000126229, Final residual = 9.82696e-07, No Iterations 281
time step continuity errors : sum local = 1.44541e-11, global = 1.8026e-20, cumulative = 1.24475e-17
smoothSolver:  Solving for epsilon, Initial residual = 0.000114624, Final residual = 3.99638e-09, No Iterations 1
smoothSolver:  Solving for k, Initial residual = 0.00354214, Final residual = 1.1557e-07, No Iterations 1
ExecutionTime = 131.42 s  ClockTime = 131 s

Time = 4.625

Courant Number mean: 9.05215e-05 max: 0.0293585
smoothSolver:  Solving for Ux, Initial residual = 0.00443816, Final residual = 1.02715e-07, No Iterations 1
smoothSolver:  Solving for Uy, Initial residual = 0.00443828, Final residual = 1.03302e-07, No Iterations 1
smoothSolver:  Solving for Uz, Initial residual = 0.00112002, Final residual = 2.39938e-08, No Iterations 1
DICPCG:  Solving for p, Initial residual = 0.00946889, Final residual = 0.000130251, No Iterations 2
time step continuity errors : sum local = 1.89331e-09, global = 1.78434e-20, cumulative = 1.24654e-17
DICPCG:  Solving for p, Initial residual = 0.00013108, Final residual = 9.82793e-07, No Iterations 218
time step continuity errors : sum local = 1.55884e-11, global = 1.79562e-20, cumulative = 1.24833e-17
smoothSolver:  Solving for epsilon, Initial residual = 0.000115527, Final residual = 4.00853e-09, No Iterations 1
smoothSolver:  Solving for k, Initial residual = 0.00351534, Final residual = 1.14603e-07, No Iterations 1
ExecutionTime = 131.98 s  ClockTime = 132 s

Time = 4.65

Courant Number mean: 8.98177e-05 max: 0.029148
smoothSolver:  Solving for Ux, Initial residual = 0.00440932, Final residual = 1.01822e-07, No Iterations 1
smoothSolver:  Solving for Uy, Initial residual = 0.00440936, Final residual = 1.02435e-07, No Iterations 1
smoothSolver:  Solving for Uz, Initial residual = 0.00111156, Final residual = 2.38351e-08, No Iterations 1
DICPCG:  Solving for p, Initial residual = 0.00954769, Final residual = 0.000137394, No Iterations 2
time step continuity errors : sum local = 1.96444e-09, global = 1.77803e-20, cumulative = 1.25011e-17
DICPCG:  Solving for p, Initial residual = 0.000138187, Final residual = 9.46738e-07, No Iterations 466
time step continuity errors : sum local = 1.34343e-11, global = 1.78161e-20, cumulative = 1.25189e-17
smoothSolver:  Solving for epsilon, Initial residual = 0.000116428, Final residual = 4.02124e-09, No Iterations 1
smoothSolver:  Solving for k, Initial residual = 0.00348892, Final residual = 1.13648e-07, No Iterations 1
ExecutionTime = 133.02 s  ClockTime = 133 s

Time = 4.675

Courant Number mean: 8.91261e-05 max: 0.0289398
smoothSolver:  Solving for Ux, Initial residual = 0.0043808, Final residual = 1.01024e-07, No Iterations 1
smoothSolver:  Solving for Uy, Initial residual = 0.00438103, Final residual = 1.01613e-07, No Iterations 1
smoothSolver:  Solving for Uz, Initial residual = 0.00110054, Final residual = 2.33271e-08, No Iterations 1
DICPCG:  Solving for p, Initial residual = 0.0096747, Final residual = 0.000143424, No Iterations 2
time step continuity errors : sum local = 2.01316e-09, global = 1.76815e-20, cumulative = 1.25366e-17
DICPCG:  Solving for p, Initial residual = 0.000144172, Final residual = 9.98758e-07, No Iterations 257
time step continuity errors : sum local = 1.46086e-11, global = 1.76273e-20, cumulative = 1.25543e-17
smoothSolver:  Solving for epsilon, Initial residual = 0.000117331, Final residual = 4.03358e-09, No Iterations 1
smoothSolver:  Solving for k, Initial residual = 0.00346261, Final residual = 1.12699e-07, No Iterations 1
ExecutionTime = 133.72 s  ClockTime = 134 s

Time = 4.7

Courant Number mean: 8.84454e-05 max: 0.0287339
smoothSolver:  Solving for Ux, Initial residual = 0.0043522, Final residual = 1.00142e-07, No Iterations 1
smoothSolver:  Solving for Uy, Initial residual = 0.00435232, Final residual = 1.00763e-07, No Iterations 1
smoothSolver:  Solving for Uz, Initial residual = 0.00109313, Final residual = 2.31998e-08, No Iterations 1
DICPCG:  Solving for p, Initial residual = 0.00977685, Final residual = 0.000152295, No Iterations 2
time step continuity errors : sum local = 2.10178e-09, global = 1.75552e-20, cumulative = 1.25718e-17
DICPCG:  Solving for p, Initial residual = 0.000152929, Final residual = 9.97409e-07, No Iterations 376
time step continuity errors : sum local = 1.4869e-11, global = 1.75995e-20, cumulative = 1.25894e-17
smoothSolver:  Solving for epsilon, Initial residual = 0.000118233, Final residual = 4.0448e-09, No Iterations 1
smoothSolver:  Solving for k, Initial residual = 0.00343659, Final residual = 1.11763e-07, No Iterations 1
ExecutionTime = 134.68 s  ClockTime = 135 s

Time = 4.725

Courant Number mean: 8.77774e-05 max: 0.0285303
smoothSolver:  Solving for Ux, Initial residual = 0.0043228, Final residual = 9.93718e-08, No Iterations 1
smoothSolver:  Solving for Uy, Initial residual = 0.00432328, Final residual = 9.9981e-08, No Iterations 1
smoothSolver:  Solving for Uz, Initial residual = 0.00108317, Final residual = 2.2726e-08, No Iterations 1
DICPCG:  Solving for p, Initial residual = 0.00997484, Final residual = 0.000170555, No Iterations 2
time step continuity errors : sum local = 2.31365e-09, global = 1.74758e-20, cumulative = 1.26069e-17
DICPCG:  Solving for p, Initial residual = 0.000171069, Final residual = 9.55307e-07, No Iterations 465
time step continuity errors : sum local = 1.30524e-11, global = 1.74904e-20, cumulative = 1.26244e-17
smoothSolver:  Solving for epsilon, Initial residual = 0.000119135, Final residual = 4.05724e-09, No Iterations 1
smoothSolver:  Solving for k, Initial residual = 0.00341088, Final residual = 1.10837e-07, No Iterations 1
ExecutionTime = 135.59 s  ClockTime = 136 s

Time = 4.75

Courant Number mean: 8.71236e-05 max: 0.0283291
smoothSolver:  Solving for Ux, Initial residual = 0.00429379, Final residual = 9.85588e-08, No Iterations 1
smoothSolver:  Solving for Uy, Initial residual = 0.00429422, Final residual = 9.92049e-08, No Iterations 1
smoothSolver:  Solving for Uz, Initial residual = 0.00107427, Final residual = 2.25128e-08, No Iterations 1
DICPCG:  Solving for p, Initial residual = 0.0103572, Final residual = 0.000230725, No Iterations 2
time step continuity errors : sum local = 3.0739e-09, global = 1.72965e-20, cumulative = 1.26417e-17
DICPCG:  Solving for p, Initial residual = 0.000231231, Final residual = 9.68054e-07, No Iterations 241
time step continuity errors : sum local = 1.30646e-11, global = 1.73124e-20, cumulative = 1.2659e-17
smoothSolver:  Solving for epsilon, Initial residual = 0.000120037, Final residual = 4.06889e-09, No Iterations 1
smoothSolver:  Solving for k, Initial residual = 0.00338559, Final residual = 1.09926e-07, No Iterations 1
ExecutionTime = 136.11 s  ClockTime = 136 s

Time = 4.775

Courant Number mean: 8.64823e-05 max: 0.0281301
smoothSolver:  Solving for Ux, Initial residual = 0.0042657, Final residual = 9.79089e-08, No Iterations 1
smoothSolver:  Solving for Uy, Initial residual = 0.00426657, Final residual = 9.85775e-08, No Iterations 1
smoothSolver:  Solving for Uz, Initial residual = 0.00106516, Final residual = 2.21106e-08, No Iterations 1
DICPCG:  Solving for p, Initial residual = 0.0103533, Final residual = 0.000171166, No Iterations 2
time step continuity errors : sum local = 2.2418e-09, global = 1.7202e-20, cumulative = 1.26762e-17
DICPCG:  Solving for p, Initial residual = 0.000171563, Final residual = 8.15291e-07, No Iterations 502
time step continuity errors : sum local = 1.05852e-11, global = 1.73097e-20, cumulative = 1.26935e-17
smoothSolver:  Solving for epsilon, Initial residual = 0.000120938, Final residual = 4.08106e-09, No Iterations 1
smoothSolver:  Solving for k, Initial residual = 0.00336073, Final residual = 1.0904e-07, No Iterations 1
ExecutionTime = 137.01 s  ClockTime = 137 s

Time = 4.8

Courant Number mean: 8.5851e-05 max: 0.0279332
smoothSolver:  Solving for Ux, Initial residual = 0.00423791, Final residual = 9.71377e-08, No Iterations 1
smoothSolver:  Solving for Uy, Initial residual = 0.00423861, Final residual = 9.78083e-08, No Iterations 1
smoothSolver:  Solving for Uz, Initial residual = 0.0010518, Final residual = 2.17217e-08, No Iterations 1
DICPCG:  Solving for p, Initial residual = 0.0104412, Final residual = 0.000156497, No Iterations 2
time step continuity errors : sum local = 2.014e-09, global = 1.71313e-20, cumulative = 1.27106e-17
DICPCG:  Solving for p, Initial residual = 0.000156938, Final residual = 9.96999e-07, No Iterations 134
time step continuity errors : sum local = 1.31772e-11, global = 1.72318e-20, cumulative = 1.27279e-17
smoothSolver:  Solving for epsilon, Initial residual = 0.000121837, Final residual = 4.09344e-09, No Iterations 1
smoothSolver:  Solving for k, Initial residual = 0.00333626, Final residual = 1.08163e-07, No Iterations 1
ExecutionTime = 137.43 s  ClockTime = 137 s

Time = 4.825

Courant Number mean: 8.52316e-05 max: 0.0277388
smoothSolver:  Solving for Ux, Initial residual = 0.00420878, Final residual = 9.63802e-08, No Iterations 1
smoothSolver:  Solving for Uy, Initial residual = 0.00420975, Final residual = 9.70403e-08, No Iterations 1
smoothSolver:  Solving for Uz, Initial residual = 0.00104803, Final residual = 2.15444e-08, No Iterations 1
DICPCG:  Solving for p, Initial residual = 0.0105345, Final residual = 0.000154111, No Iterations 2
time step continuity errors : sum local = 1.94913e-09, global = 1.70375e-20, cumulative = 1.27449e-17
DICPCG:  Solving for p, Initial residual = 0.000154603, Final residual = 9.95805e-07, No Iterations 220
time step continuity errors : sum local = 1.33799e-11, global = 1.71069e-20, cumulative = 1.2762e-17
smoothSolver:  Solving for epsilon, Initial residual = 0.000122735, Final residual = 4.10545e-09, No Iterations 1
smoothSolver:  Solving for k, Initial residual = 0.00331219, Final residual = 1.073e-07, No Iterations 1
ExecutionTime = 137.96 s  ClockTime = 138 s

Time = 4.85

Courant Number mean: 8.46244e-05 max: 0.0275464
smoothSolver:  Solving for Ux, Initial residual = 0.00417999, Final residual = 9.55339e-08, No Iterations 1
smoothSolver:  Solving for Uy, Initial residual = 0.00418065, Final residual = 9.62061e-08, No Iterations 1
smoothSolver:  Solving for Uz, Initial residual = 0.00103946, Final residual = 2.12521e-08, No Iterations 1
DICPCG:  Solving for p, Initial residual = 0.0105306, Final residual = 0.000148534, No Iterations 2
time step continuity errors : sum local = 1.84714e-09, global = 1.68574e-20, cumulative = 1.27789e-17
DICPCG:  Solving for p, Initial residual = 0.000149062, Final residual = 9.97974e-07, No Iterations 411
time step continuity errors : sum local = 1.32741e-11, global = 1.69014e-20, cumulative = 1.27958e-17
smoothSolver:  Solving for epsilon, Initial residual = 0.000123633, Final residual = 4.11763e-09, No Iterations 1
smoothSolver:  Solving for k, Initial residual = 0.00328849, Final residual = 1.06452e-07, No Iterations 1
ExecutionTime = 138.65 s  ClockTime = 139 s

Time = 4.875

Courant Number mean: 8.40282e-05 max: 0.0273562
smoothSolver:  Solving for Ux, Initial residual = 0.00415086, Final residual = 9.4754e-08, No Iterations 1
smoothSolver:  Solving for Uy, Initial residual = 0.00415186, Final residual = 9.54287e-08, No Iterations 1
smoothSolver:  Solving for Uz, Initial residual = 0.00103031, Final residual = 2.09369e-08, No Iterations 1
DICPCG:  Solving for p, Initial residual = 0.0104675, Final residual = 0.00016144, No Iterations 2
time step continuity errors : sum local = 1.97212e-09, global = 1.67979e-20, cumulative = 1.28126e-17
DICPCG:  Solving for p, Initial residual = 0.000161989, Final residual = 9.49349e-07, No Iterations 367
time step continuity errors : sum local = 1.17431e-11, global = 1.67942e-20, cumulative = 1.28294e-17
smoothSolver:  Solving for epsilon, Initial residual = 0.000124531, Final residual = 4.12961e-09, No Iterations 1
smoothSolver:  Solving for k, Initial residual = 0.00326517, Final residual = 1.05607e-07, No Iterations 1
ExecutionTime = 139.27 s  ClockTime = 139 s

Time = 4.9

Courant Number mean: 8.34414e-05 max: 0.0271681
smoothSolver:  Solving for Ux, Initial residual = 0.00412363, Final residual = 9.3912e-08, No Iterations 1
smoothSolver:  Solving for Uy, Initial residual = 0.0041246, Final residual = 9.45798e-08, No Iterations 1
smoothSolver:  Solving for Uz, Initial residual = 0.001025, Final residual = 2.07446e-08, No Iterations 1
DICPCG:  Solving for p, Initial residual = 0.0103714, Final residual = 0.000150189, No Iterations 2
time step continuity errors : sum local = 1.80155e-09, global = 1.6727e-20, cumulative = 1.28461e-17
DICPCG:  Solving for p, Initial residual = 0.000150824, Final residual = 9.95207e-07, No Iterations 251
time step continuity errors : sum local = 1.21027e-11, global = 1.66962e-20, cumulative = 1.28628e-17
smoothSolver:  Solving for epsilon, Initial residual = 0.000125429, Final residual = 4.14276e-09, No Iterations 1
smoothSolver:  Solving for k, Initial residual = 0.00324222, Final residual = 1.04787e-07, No Iterations 1
ExecutionTime = 139.75 s  ClockTime = 140 s

Time = 4.925

Courant Number mean: 8.28655e-05 max: 0.0269823
smoothSolver:  Solving for Ux, Initial residual = 0.00409611, Final residual = 9.31468e-08, No Iterations 1
smoothSolver:  Solving for Uy, Initial residual = 0.00409722, Final residual = 9.38115e-08, No Iterations 1
smoothSolver:  Solving for Uz, Initial residual = 0.0010173, Final residual = 2.04929e-08, No Iterations 1
DICPCG:  Solving for p, Initial residual = 0.0102292, Final residual = 0.000136648, No Iterations 2
time step continuity errors : sum local = 1.61061e-09, global = 1.66123e-20, cumulative = 1.28794e-17
DICPCG:  Solving for p, Initial residual = 0.00013746, Final residual = 9.01611e-07, No Iterations 501
time step continuity errors : sum local = 1.05327e-11, global = 1.65692e-20, cumulative = 1.2896e-17
smoothSolver:  Solving for epsilon, Initial residual = 0.000126326, Final residual = 4.1533e-09, No Iterations 1
smoothSolver:  Solving for k, Initial residual = 0.00321963, Final residual = 1.03978e-07, No Iterations 1
ExecutionTime = 140.56 s  ClockTime = 141 s

Time = 4.95

Courant Number mean: 8.2307e-05 max: 0.0267986
smoothSolver:  Solving for Ux, Initial residual = 0.00406856, Final residual = 9.23447e-08, No Iterations 1
smoothSolver:  Solving for Uy, Initial residual = 0.0040694, Final residual = 9.3003e-08, No Iterations 1
smoothSolver:  Solving for Uz, Initial residual = 0.00100739, Final residual = 2.01396e-08, No Iterations 1
DICPCG:  Solving for p, Initial residual = 0.0100905, Final residual = 0.000130089, No Iterations 2
time step continuity errors : sum local = 1.50597e-09, global = 1.64901e-20, cumulative = 1.29124e-17
DICPCG:  Solving for p, Initial residual = 0.000130953, Final residual = 9.66202e-07, No Iterations 254
time step continuity errors : sum local = 1.1461e-11, global = 1.64179e-20, cumulative = 1.29289e-17
smoothSolver:  Solving for epsilon, Initial residual = 0.000127222, Final residual = 4.16647e-09, No Iterations 1
smoothSolver:  Solving for k, Initial residual = 0.00319739, Final residual = 1.03182e-07, No Iterations 1
ExecutionTime = 141.09 s  ClockTime = 141 s

Time = 4.975

Courant Number mean: 8.17653e-05 max: 0.026617
smoothSolver:  Solving for Ux, Initial residual = 0.00403978, Final residual = 9.15801e-08, No Iterations 1
smoothSolver:  Solving for Uy, Initial residual = 0.00404068, Final residual = 9.22403e-08, No Iterations 1
smoothSolver:  Solving for Uz, Initial residual = 0.00100086, Final residual = 1.9938e-08, No Iterations 1
DICPCG:  Solving for p, Initial residual = 0.00992561, Final residual = 0.000128402, No Iterations 2
time step continuity errors : sum local = 1.46085e-09, global = 1.62953e-20, cumulative = 1.29452e-17
DICPCG:  Solving for p, Initial residual = 0.000129282, Final residual = 8.94755e-07, No Iterations 425
time step continuity errors : sum local = 1.09448e-11, global = 1.6366e-20, cumulative = 1.29615e-17
smoothSolver:  Solving for epsilon, Initial residual = 0.000128117, Final residual = 4.17705e-09, No Iterations 1
smoothSolver:  Solving for k, Initial residual = 0.00317548, Final residual = 1.02396e-07, No Iterations 1
ExecutionTime = 141.83 s  ClockTime = 142 s

Time = 5

Courant Number mean: 8.12329e-05 max: 0.0264372
smoothSolver:  Solving for Ux, Initial residual = 0.00401179, Final residual = 9.08059e-08, No Iterations 1
smoothSolver:  Solving for Uy, Initial residual = 0.00401254, Final residual = 9.14555e-08, No Iterations 1
smoothSolver:  Solving for Uz, Initial residual = 0.000991698, Final residual = 1.95601e-08, No Iterations 1
DICPCG:  Solving for p, Initial residual = 0.00979682, Final residual = 0.000129144, No Iterations 2
time step continuity errors : sum local = 1.44389e-09, global = 1.6249e-20, cumulative = 1.29778e-17
DICPCG:  Solving for p, Initial residual = 0.000130023, Final residual = 9.7155e-07, No Iterations 494
time step continuity errors : sum local = 1.07604e-11, global = 1.63142e-20, cumulative = 1.29941e-17
smoothSolver:  Solving for epsilon, Initial residual = 0.000129011, Final residual = 4.18731e-09, No Iterations 1
smoothSolver:  Solving for k, Initial residual = 0.0031539, Final residual = 1.0162e-07, No Iterations 1
ExecutionTime = 142.73 s  ClockTime = 143 s

End

Finalising parallel run
