/*---------------------------------------------------------------------------*\
| =========                 |                                                 |
| \\      /  F ield         | OpenFOAM: The Open Source CFD Toolbox           |
|  \\    /   O peration     | Version:  2206                                  |
|   \\  /    A nd           | Website:  www.openfoam.com                      |
|    \\/     M anipulation  |                                                 |
\*---------------------------------------------------------------------------*/
Build  : _76d719d1-20220624 OPENFOAM=2206 version=2206
Arch   : "LSB;label=32;scalar=64"
Exec   : pisoFoam -parallel
Date   : Nov 13 2023
Time   : 08:51:20
Host   : MSI
PID    : 1270
I/O    : uncollated
Case   : /home/baqer/Git-hub-OpenFoam/snappy-pipe-2/pipe-flow-2/PisoFoam-turbulant
nProcs : 6
Hosts  :
(
    (MSI 6)
)
Pstream initialized with:
    floatTransfer      : 0
    nProcsSimpleSum    : 0
    commsType          : nonBlocking
    polling iterations : 0
trapFpe: Floating point exception trapping enabled (FOAM_SIGFPE).
fileModificationChecking : Monitoring run-time modified files using timeStampMaster (fileModificationSkew 5, maxFileModificationPolls 20)
allowSystemOperations : Allowing user-supplied system call operations

// * * * * * * * * * * * * * * * * * * * * * * * * * * * * * * * * * * * * * //
Create time

Create mesh for time = 0


PISO: Operating solver in PISO mode

Reading field p

Reading field U

Reading/calculating face flux field phi

Selecting incompressible transport model Newtonian
Selecting turbulence model type RAS
Selecting RAS turbulence model kEpsilon
RAS
{
    RASModel        kEpsilon;
    turbulence      on;
    printCoeffs     on;
    Cmu             0.09;
    C1              1.44;
    C2              1.92;
    C3              0;
    sigmak          1;
    sigmaEps        1.3;
}

No MRF models present

No finite volume options present

Starting time loop

Time = 0.025

Courant Number mean: 0.0377384 max: 0.306184
smoothSolver:  Solving for Ux, Initial residual = 1, Final residual = 8.87877e-07, No Iterations 3
smoothSolver:  Solving for Uy, Initial residual = 1, Final residual = 8.8788e-07, No Iterations 3
smoothSolver:  Solving for Uz, Initial residual = 1, Final residual = 8.87735e-06, No Iterations 2
DICPCG:  Solving for p, Initial residual = 1, Final residual = 0.0485135, No Iterations 472
time step continuity errors : sum local = 5.2916e-08, global = 1.94124e-11, cumulative = 1.94124e-11
DICPCG:  Solving for p, Initial residual = 0.0002773, Final residual = 8.98144e-07, No Iterations 482
time step continuity errors : sum local = 4.15478e-10, global = 4.25873e-13, cumulative = 1.98383e-11
smoothSolver:  Solving for epsilon, Initial residual = 0.000838625, Final residual = 1.31462e-06, No Iterations 1
smoothSolver:  Solving for k, Initial residual = 1, Final residual = 9.01723e-06, No Iterations 2
ExecutionTime = 1.36 s  ClockTime = 1 s

Time = 0.05

Courant Number mean: 0.0378272 max: 0.300015
smoothSolver:  Solving for Ux, Initial residual = 0.330538, Final residual = 2.7427e-06, No Iterations 2
smoothSolver:  Solving for Uy, Initial residual = 0.330535, Final residual = 2.741e-06, No Iterations 2
smoothSolver:  Solving for Uz, Initial residual = 0.760004, Final residual = 4.69237e-06, No Iterations 2
DICPCG:  Solving for p, Initial residual = 0.004634, Final residual = 0.000228691, No Iterations 473
time step continuity errors : sum local = 1.08029e-07, global = -8.4904e-10, cumulative = -8.29201e-10
DICPCG:  Solving for p, Initial residual = 0.0368068, Final residual = 9.28282e-07, No Iterations 506
time step continuity errors : sum local = 4.31597e-12, global = -2.11311e-14, cumulative = -8.29223e-10
smoothSolver:  Solving for epsilon, Initial residual = 0.00038071, Final residual = 3.88951e-07, No Iterations 1
smoothSolver:  Solving for k, Initial residual = 0.186518, Final residual = 7.13828e-07, No Iterations 2
ExecutionTime = 2.56 s  ClockTime = 3 s

Time = 0.075

Courant Number mean: 0.037827 max: 0.299475
smoothSolver:  Solving for Ux, Initial residual = 0.0253652, Final residual = 4.23475e-07, No Iterations 2
smoothSolver:  Solving for Uy, Initial residual = 0.0253977, Final residual = 4.23633e-07, No Iterations 2
smoothSolver:  Solving for Uz, Initial residual = 0.0484309, Final residual = 3.55999e-07, No Iterations 2
DICPCG:  Solving for p, Initial residual = 0.0746579, Final residual = 0.00162757, No Iterations 2
time step continuity errors : sum local = 1.20737e-08, global = -3.96325e-11, cumulative = -8.68855e-10
DICPCG:  Solving for p, Initial residual = 0.00205571, Final residual = 9.91606e-07, No Iterations 491
time step continuity errors : sum local = 6.82472e-12, global = 1.79694e-13, cumulative = -8.68675e-10
smoothSolver:  Solving for epsilon, Initial residual = 0.000367624, Final residual = 3.61161e-07, No Iterations 1
smoothSolver:  Solving for k, Initial residual = 0.10314, Final residual = 4.44023e-07, No Iterations 2
ExecutionTime = 3.25 s  ClockTime = 3 s

Time = 0.1

Courant Number mean: 0.0378267 max: 0.29923
smoothSolver:  Solving for Ux, Initial residual = 0.0138037, Final residual = 2.99089e-07, No Iterations 2
smoothSolver:  Solving for Uy, Initial residual = 0.0138009, Final residual = 2.98937e-07, No Iterations 2
smoothSolver:  Solving for Uz, Initial residual = 0.041254, Final residual = 3.0119e-07, No Iterations 2
DICPCG:  Solving for p, Initial residual = 0.0263873, Final residual = 0.000496088, No Iterations 2
time step continuity errors : sum local = 3.23163e-09, global = -4.64408e-11, cumulative = -9.15116e-10
DICPCG:  Solving for p, Initial residual = 0.000608518, Final residual = 9.44519e-07, No Iterations 487
time step continuity errors : sum local = 5.99992e-12, global = -2.8805e-14, cumulative = -9.15145e-10
smoothSolver:  Solving for epsilon, Initial residual = 0.000356252, Final residual = 3.48352e-07, No Iterations 1
smoothSolver:  Solving for k, Initial residual = 0.0713695, Final residual = 3.10751e-07, No Iterations 2
ExecutionTime = 3.93 s  ClockTime = 4 s

Time = 0.125

Courant Number mean: 0.0378264 max: 0.299002
smoothSolver:  Solving for Ux, Initial residual = 0.0106917, Final residual = 2.51979e-07, No Iterations 2
smoothSolver:  Solving for Uy, Initial residual = 0.0106907, Final residual = 2.51866e-07, No Iterations 2
smoothSolver:  Solving for Uz, Initial residual = 0.0359042, Final residual = 2.61435e-07, No Iterations 2
DICPCG:  Solving for p, Initial residual = 0.0169927, Final residual = 0.000308274, No Iterations 2
time step continuity errors : sum local = 1.88913e-09, global = -5.04301e-11, cumulative = -9.65575e-10
DICPCG:  Solving for p, Initial residual = 0.000377907, Final residual = 9.05081e-07, No Iterations 486
time step continuity errors : sum local = 5.46173e-12, global = 3.4534e-14, cumulative = -9.65541e-10
smoothSolver:  Solving for epsilon, Initial residual = 0.000346126, Final residual = 3.4039e-07, No Iterations 1
smoothSolver:  Solving for k, Initial residual = 0.0546101, Final residual = 2.43224e-07, No Iterations 2
ExecutionTime = 4.58 s  ClockTime = 5 s

Time = 0.15

Courant Number mean: 0.0378261 max: 0.298764
smoothSolver:  Solving for Ux, Initial residual = 0.00884481, Final residual = 2.19426e-07, No Iterations 2
smoothSolver:  Solving for Uy, Initial residual = 0.00884682, Final residual = 2.19367e-07, No Iterations 2
smoothSolver:  Solving for Uz, Initial residual = 0.0317684, Final residual = 2.30783e-07, No Iterations 2
DICPCG:  Solving for p, Initial residual = 0.0119551, Final residual = 0.000253363, No Iterations 2
time step continuity errors : sum local = 1.49411e-09, global = -6.99119e-11, cumulative = -1.03545e-09
DICPCG:  Solving for p, Initial residual = 0.000304069, Final residual = 7.96389e-07, No Iterations 487
time step continuity errors : sum local = 4.64675e-12, global = 2.59657e-14, cumulative = -1.03543e-09
smoothSolver:  Solving for epsilon, Initial residual = 0.000336957, Final residual = 3.32826e-07, No Iterations 1
smoothSolver:  Solving for k, Initial residual = 0.0442553, Final residual = 1.95661e-07, No Iterations 2
ExecutionTime = 5.23 s  ClockTime = 5 s

Time = 0.175

Courant Number mean: 0.0378258 max: 0.298495
smoothSolver:  Solving for Ux, Initial residual = 0.00760483, Final residual = 1.96756e-07, No Iterations 2
smoothSolver:  Solving for Uy, Initial residual = 0.00760736, Final residual = 1.96748e-07, No Iterations 2
smoothSolver:  Solving for Uz, Initial residual = 0.0284622, Final residual = 2.06294e-07, No Iterations 2
DICPCG:  Solving for p, Initial residual = 0.00893525, Final residual = 0.00021056, No Iterations 2
time step continuity errors : sum local = 1.20915e-09, global = -7.04912e-11, cumulative = -1.10592e-09
DICPCG:  Solving for p, Initial residual = 0.000250839, Final residual = 9.77633e-07, No Iterations 486
time step continuity errors : sum local = 5.57009e-12, global = 3.5667e-14, cumulative = -1.10588e-09
smoothSolver:  Solving for epsilon, Initial residual = 0.000328507, Final residual = 3.22717e-07, No Iterations 1
smoothSolver:  Solving for k, Initial residual = 0.0372227, Final residual = 1.66171e-07, No Iterations 2
ExecutionTime = 5.92 s  ClockTime = 6 s

Time = 0.2

Courant Number mean: 0.0378255 max: 0.298283
smoothSolver:  Solving for Ux, Initial residual = 0.006827, Final residual = 1.8265e-07, No Iterations 2
smoothSolver:  Solving for Uy, Initial residual = 0.00683076, Final residual = 1.82662e-07, No Iterations 2
smoothSolver:  Solving for Uz, Initial residual = 0.0257671, Final residual = 1.86335e-07, No Iterations 2
DICPCG:  Solving for p, Initial residual = 0.00699147, Final residual = 0.0001908, No Iterations 2
time step continuity errors : sum local = 1.07463e-09, global = -7.07061e-11, cumulative = -1.17659e-09
DICPCG:  Solving for p, Initial residual = 0.000223727, Final residual = 9.89082e-07, No Iterations 486
time step continuity errors : sum local = 5.53709e-12, global = 4.29069e-14, cumulative = -1.17655e-09
smoothSolver:  Solving for epsilon, Initial residual = 0.000320665, Final residual = 3.12492e-07, No Iterations 1
smoothSolver:  Solving for k, Initial residual = 0.0321347, Final residual = 1.43202e-07, No Iterations 2
ExecutionTime = 6.6 s  ClockTime = 7 s

Time = 0.225

Courant Number mean: 0.0378253 max: 0.298212
smoothSolver:  Solving for Ux, Initial residual = 0.00623202, Final residual = 1.73675e-07, No Iterations 2
smoothSolver:  Solving for Uy, Initial residual = 0.00623373, Final residual = 1.73674e-07, No Iterations 2
smoothSolver:  Solving for Uz, Initial residual = 0.0235433, Final residual = 1.70017e-07, No Iterations 2
DICPCG:  Solving for p, Initial residual = 0.00569261, Final residual = 0.000173703, No Iterations 2
time step continuity errors : sum local = 9.64104e-10, global = -7.21202e-11, cumulative = -1.24867e-09
DICPCG:  Solving for p, Initial residual = 0.00020317, Final residual = 8.62269e-07, No Iterations 470
time step continuity errors : sum local = 4.7628e-12, global = -9.41077e-14, cumulative = -1.24876e-09
smoothSolver:  Solving for epsilon, Initial residual = 0.000313361, Final residual = 3.04828e-07, No Iterations 1
smoothSolver:  Solving for k, Initial residual = 0.0282827, Final residual = 1.24741e-07, No Iterations 2
ExecutionTime = 7.25 s  ClockTime = 7 s

Time = 0.25

Courant Number mean: 0.037825 max: 0.298121
smoothSolver:  Solving for Ux, Initial residual = 0.00575561, Final residual = 1.67423e-07, No Iterations 2
smoothSolver:  Solving for Uy, Initial residual = 0.00575783, Final residual = 1.67443e-07, No Iterations 2
smoothSolver:  Solving for Uz, Initial residual = 0.0216765, Final residual = 1.56476e-07, No Iterations 2
DICPCG:  Solving for p, Initial residual = 0.00473664, Final residual = 0.00015452, No Iterations 2
time step continuity errors : sum local = 8.47974e-10, global = -7.14417e-11, cumulative = -1.3202e-09
DICPCG:  Solving for p, Initial residual = 0.000181083, Final residual = 9.92427e-07, No Iterations 486
time step continuity errors : sum local = 5.42499e-12, global = 3.50407e-14, cumulative = -1.32017e-09
smoothSolver:  Solving for epsilon, Initial residual = 0.000306513, Final residual = 2.97855e-07, No Iterations 1
smoothSolver:  Solving for k, Initial residual = 0.0252649, Final residual = 1.11596e-07, No Iterations 2
ExecutionTime = 8 s  ClockTime = 8 s

Time = 0.275

Courant Number mean: 0.0378247 max: 0.298007
smoothSolver:  Solving for Ux, Initial residual = 0.00536478, Final residual = 1.62296e-07, No Iterations 2
smoothSolver:  Solving for Uy, Initial residual = 0.0053681, Final residual = 1.6234e-07, No Iterations 2
smoothSolver:  Solving for Uz, Initial residual = 0.0200797, Final residual = 1.44948e-07, No Iterations 2
DICPCG:  Solving for p, Initial residual = 0.0040375, Final residual = 0.000141861, No Iterations 2
time step continuity errors : sum local = 7.7162e-10, global = -6.93016e-11, cumulative = -1.38947e-09
DICPCG:  Solving for p, Initial residual = 0.000166661, Final residual = 9.03746e-07, No Iterations 465
time step continuity errors : sum local = 4.89992e-12, global = -8.81044e-14, cumulative = -1.38956e-09
smoothSolver:  Solving for epsilon, Initial residual = 0.000300059, Final residual = 2.90884e-07, No Iterations 1
smoothSolver:  Solving for k, Initial residual = 0.0228369, Final residual = 1.01283e-07, No Iterations 2
ExecutionTime = 8.66 s  ClockTime = 9 s

Time = 0.3

Courant Number mean: 0.0378245 max: 0.297865
smoothSolver:  Solving for Ux, Initial residual = 0.00505219, Final residual = 1.58509e-07, No Iterations 2
smoothSolver:  Solving for Uy, Initial residual = 0.00505701, Final residual = 1.58567e-07, No Iterations 2
smoothSolver:  Solving for Uz, Initial residual = 0.0187013, Final residual = 1.35025e-07, No Iterations 2
DICPCG:  Solving for p, Initial residual = 0.00347928, Final residual = 0.000128672, No Iterations 2
time step continuity errors : sum local = 6.95004e-10, global = -6.90515e-11, cumulative = -1.45861e-09
DICPCG:  Solving for p, Initial residual = 0.000151488, Final residual = 9.65852e-07, No Iterations 486
time step continuity errors : sum local = 5.20309e-12, global = 3.03452e-14, cumulative = -1.45858e-09
smoothSolver:  Solving for epsilon, Initial residual = 0.000293957, Final residual = 2.84016e-07, No Iterations 1
smoothSolver:  Solving for k, Initial residual = 0.020841, Final residual = 9.21838e-08, No Iterations 2
ExecutionTime = 9.35 s  ClockTime = 9 s

Time = 0.325

Courant Number mean: 0.0378242 max: 0.297694
smoothSolver:  Solving for Ux, Initial residual = 0.00482567, Final residual = 1.55399e-07, No Iterations 2
smoothSolver:  Solving for Uy, Initial residual = 0.00482898, Final residual = 1.5544e-07, No Iterations 2
smoothSolver:  Solving for Uz, Initial residual = 0.0174956, Final residual = 1.26395e-07, No Iterations 2
DICPCG:  Solving for p, Initial residual = 0.00303031, Final residual = 0.000115441, No Iterations 2
time step continuity errors : sum local = 6.20103e-10, global = -6.54064e-11, cumulative = -1.52398e-09
DICPCG:  Solving for p, Initial residual = 0.00013681, Final residual = 9.26117e-07, No Iterations 458
time step continuity errors : sum local = 4.96369e-12, global = -1.36861e-14, cumulative = -1.524e-09
smoothSolver:  Solving for epsilon, Initial residual = 0.000288164, Final residual = 2.77664e-07, No Iterations 1
smoothSolver:  Solving for k, Initial residual = 0.0191713, Final residual = 8.47961e-08, No Iterations 2
ExecutionTime = 10.01 s  ClockTime = 10 s

Time = 0.35

Courant Number mean: 0.0378239 max: 0.297493
smoothSolver:  Solving for Ux, Initial residual = 0.00464166, Final residual = 1.51936e-07, No Iterations 2
smoothSolver:  Solving for Uy, Initial residual = 0.00464361, Final residual = 1.51967e-07, No Iterations 2
smoothSolver:  Solving for Uz, Initial residual = 0.0164297, Final residual = 9.80018e-06, No Iterations 1
DICPCG:  Solving for p, Initial residual = 0.00267895, Final residual = 0.000106361, No Iterations 2
time step continuity errors : sum local = 5.68812e-10, global = -6.26526e-11, cumulative = -1.58665e-09
DICPCG:  Solving for p, Initial residual = 0.00012801, Final residual = 9.89783e-07, No Iterations 457
time step continuity errors : sum local = 5.2831e-12, global = -4.45341e-14, cumulative = -1.58669e-09
smoothSolver:  Solving for epsilon, Initial residual = 0.000282649, Final residual = 2.69808e-07, No Iterations 1
smoothSolver:  Solving for k, Initial residual = 0.0177537, Final residual = 7.91378e-08, No Iterations 2
ExecutionTime = 10.67 s  ClockTime = 11 s

Time = 0.375

Courant Number mean: 0.0378237 max: 0.297265
smoothSolver:  Solving for Ux, Initial residual = 0.00448918, Final residual = 1.48002e-07, No Iterations 2
smoothSolver:  Solving for Uy, Initial residual = 0.00449062, Final residual = 1.48023e-07, No Iterations 2
smoothSolver:  Solving for Uz, Initial residual = 0.0154866, Final residual = 9.23669e-06, No Iterations 1
DICPCG:  Solving for p, Initial residual = 0.00240114, Final residual = 9.45627e-05, No Iterations 2
time step continuity errors : sum local = 5.03909e-10, global = -5.84685e-11, cumulative = -1.64516e-09
DICPCG:  Solving for p, Initial residual = 0.000115731, Final residual = 9.99942e-07, No Iterations 438
time step continuity errors : sum local = 5.31963e-12, global = 4.89741e-14, cumulative = -1.64511e-09
smoothSolver:  Solving for epsilon, Initial residual = 0.000277372, Final residual = 2.64886e-07, No Iterations 1
smoothSolver:  Solving for k, Initial residual = 0.0165351, Final residual = 7.30901e-08, No Iterations 2
ExecutionTime = 11.31 s  ClockTime = 11 s

Time = 0.4

Courant Number mean: 0.0378234 max: 0.297013
smoothSolver:  Solving for Ux, Initial residual = 0.00436229, Final residual = 1.4417e-07, No Iterations 2
smoothSolver:  Solving for Uy, Initial residual = 0.00436334, Final residual = 1.44177e-07, No Iterations 2
smoothSolver:  Solving for Uz, Initial residual = 0.0146439, Final residual = 8.7302e-06, No Iterations 1
DICPCG:  Solving for p, Initial residual = 0.00216231, Final residual = 8.61181e-05, No Iterations 2
time step continuity errors : sum local = 4.57593e-10, global = -5.32236e-11, cumulative = -1.69834e-09
DICPCG:  Solving for p, Initial residual = 0.000106477, Final residual = 9.71642e-07, No Iterations 232
time step continuity errors : sum local = 5.15536e-12, global = 2.82935e-13, cumulative = -1.69805e-09
smoothSolver:  Solving for epsilon, Initial residual = 0.000272338, Final residual = 2.58662e-07, No Iterations 1
smoothSolver:  Solving for k, Initial residual = 0.0154765, Final residual = 6.84169e-08, No Iterations 2
ExecutionTime = 11.72 s  ClockTime = 12 s

Time = 0.425

Courant Number mean: 0.0378232 max: 0.296739
smoothSolver:  Solving for Ux, Initial residual = 0.00424192, Final residual = 1.39756e-07, No Iterations 2
smoothSolver:  Solving for Uy, Initial residual = 0.00424312, Final residual = 1.39763e-07, No Iterations 2
smoothSolver:  Solving for Uz, Initial residual = 0.0138873, Final residual = 8.27451e-06, No Iterations 1
DICPCG:  Solving for p, Initial residual = 0.00197368, Final residual = 7.82566e-05, No Iterations 2
time step continuity errors : sum local = 4.14923e-10, global = -4.89765e-11, cumulative = -1.74703e-09
DICPCG:  Solving for p, Initial residual = 9.80246e-05, Final residual = 9.895e-07, No Iterations 234
time step continuity errors : sum local = 5.23969e-12, global = 6.64051e-13, cumulative = -1.74637e-09
smoothSolver:  Solving for epsilon, Initial residual = 0.000267526, Final residual = 2.51981e-07, No Iterations 1
smoothSolver:  Solving for k, Initial residual = 0.0145481, Final residual = 6.41058e-08, No Iterations 2
ExecutionTime = 12.11 s  ClockTime = 12 s

Time = 0.45

Courant Number mean: 0.0378229 max: 0.296449
smoothSolver:  Solving for Ux, Initial residual = 0.00412822, Final residual = 1.36056e-07, No Iterations 2
smoothSolver:  Solving for Uy, Initial residual = 0.004129, Final residual = 1.36053e-07, No Iterations 2
smoothSolver:  Solving for Uz, Initial residual = 0.0132048, Final residual = 7.86228e-06, No Iterations 1
DICPCG:  Solving for p, Initial residual = 0.00178944, Final residual = 7.12811e-05, No Iterations 2
time step continuity errors : sum local = 3.77234e-10, global = -4.6888e-11, cumulative = -1.79325e-09
DICPCG:  Solving for p, Initial residual = 9.06762e-05, Final residual = 9.993e-07, No Iterations 95
time step continuity errors : sum local = 5.28254e-12, global = 4.67458e-13, cumulative = -1.79279e-09
smoothSolver:  Solving for epsilon, Initial residual = 0.000262946, Final residual = 2.46929e-07, No Iterations 1
smoothSolver:  Solving for k, Initial residual = 0.0137271, Final residual = 6.01746e-08, No Iterations 2
ExecutionTime = 12.37 s  ClockTime = 12 s

Time = 0.475

Courant Number mean: 0.0378227 max: 0.296147
smoothSolver:  Solving for Ux, Initial residual = 0.00403977, Final residual = 9.98015e-06, No Iterations 1
smoothSolver:  Solving for Uy, Initial residual = 0.00404042, Final residual = 9.98219e-06, No Iterations 1
smoothSolver:  Solving for Uz, Initial residual = 0.0125859, Final residual = 7.48725e-06, No Iterations 1
DICPCG:  Solving for p, Initial residual = 0.00163856, Final residual = 6.48872e-05, No Iterations 2
time step continuity errors : sum local = 3.42853e-10, global = -4.43454e-11, cumulative = -1.83713e-09
DICPCG:  Solving for p, Initial residual = 8.66631e-05, Final residual = 9.89241e-07, No Iterations 75
time step continuity errors : sum local = 5.22172e-12, global = -4.00232e-13, cumulative = -1.83753e-09
smoothSolver:  Solving for epsilon, Initial residual = 0.000258553, Final residual = 2.41954e-07, No Iterations 1
smoothSolver:  Solving for k, Initial residual = 0.012996, Final residual = 5.70499e-08, No Iterations 2
ExecutionTime = 12.6 s  ClockTime = 13 s

Time = 0.5

Courant Number mean: 0.0378224 max: 0.29584
smoothSolver:  Solving for Ux, Initial residual = 0.00397621, Final residual = 9.73719e-06, No Iterations 1
smoothSolver:  Solving for Uy, Initial residual = 0.00397668, Final residual = 9.73914e-06, No Iterations 1
smoothSolver:  Solving for Uz, Initial residual = 0.0120221, Final residual = 7.14503e-06, No Iterations 1
DICPCG:  Solving for p, Initial residual = 0.00151679, Final residual = 6.04445e-05, No Iterations 2
time step continuity errors : sum local = 3.18951e-10, global = -4.28366e-11, cumulative = -1.88037e-09
DICPCG:  Solving for p, Initial residual = 8.16539e-05, Final residual = 9.77149e-07, No Iterations 367
time step continuity errors : sum local = 5.15169e-12, global = -2.08925e-13, cumulative = -1.88058e-09
smoothSolver:  Solving for epsilon, Initial residual = 0.000254326, Final residual = 2.37916e-07, No Iterations 1
smoothSolver:  Solving for k, Initial residual = 0.0123408, Final residual = 5.38993e-08, No Iterations 2
ExecutionTime = 13.32 s  ClockTime = 13 s

Time = 0.525

Courant Number mean: 0.0378222 max: 0.295531
smoothSolver:  Solving for Ux, Initial residual = 0.00391171, Final residual = 9.46461e-06, No Iterations 1
smoothSolver:  Solving for Uy, Initial residual = 0.00391195, Final residual = 9.46654e-06, No Iterations 1
smoothSolver:  Solving for Uz, Initial residual = 0.0115106, Final residual = 6.83393e-06, No Iterations 1
DICPCG:  Solving for p, Initial residual = 0.00141679, Final residual = 5.6223e-05, No Iterations 2
time step continuity errors : sum local = 2.96578e-10, global = -3.71929e-11, cumulative = -1.91777e-09
DICPCG:  Solving for p, Initial residual = 7.72658e-05, Final residual = 9.32873e-07, No Iterations 381
time step continuity errors : sum local = 4.91707e-12, global = 1.17228e-14, cumulative = -1.91776e-09
smoothSolver:  Solving for epsilon, Initial residual = 0.000250254, Final residual = 2.34432e-07, No Iterations 1
smoothSolver:  Solving for k, Initial residual = 0.01175, Final residual = 9.54661e-06, No Iterations 1
ExecutionTime = 13.95 s  ClockTime = 14 s

Time = 0.55

Courant Number mean: 0.0378219 max: 0.295227
smoothSolver:  Solving for Ux, Initial residual = 0.00384984, Final residual = 9.20194e-06, No Iterations 1
smoothSolver:  Solving for Uy, Initial residual = 0.00384999, Final residual = 9.20344e-06, No Iterations 1
smoothSolver:  Solving for Uz, Initial residual = 0.0110385, Final residual = 6.54661e-06, No Iterations 1
DICPCG:  Solving for p, Initial residual = 0.00131954, Final residual = 5.10213e-05, No Iterations 2
time step continuity errors : sum local = 2.68974e-10, global = -3.31458e-11, cumulative = -1.95091e-09
DICPCG:  Solving for p, Initial residual = 7.18777e-05, Final residual = 9.52222e-07, No Iterations 413
time step continuity errors : sum local = 5.01637e-12, global = 3.21304e-14, cumulative = -1.95087e-09
smoothSolver:  Solving for epsilon, Initial residual = 0.00024642, Final residual = 2.31591e-07, No Iterations 1
smoothSolver:  Solving for k, Initial residual = 0.0112148, Final residual = 8.93007e-06, No Iterations 1
ExecutionTime = 14.53 s  ClockTime = 15 s

Time = 0.575

Courant Number mean: 0.0378217 max: 0.294932
smoothSolver:  Solving for Ux, Initial residual = 0.00379156, Final residual = 9.01431e-06, No Iterations 1
smoothSolver:  Solving for Uy, Initial residual = 0.00379158, Final residual = 9.01546e-06, No Iterations 1
smoothSolver:  Solving for Uz, Initial residual = 0.0106053, Final residual = 6.28192e-06, No Iterations 1
DICPCG:  Solving for p, Initial residual = 0.00123206, Final residual = 4.6978e-05, No Iterations 2
time step continuity errors : sum local = 2.47597e-10, global = -2.95923e-11, cumulative = -1.98047e-09
DICPCG:  Solving for p, Initial residual = 6.71163e-05, Final residual = 9.44112e-07, No Iterations 460
time step continuity errors : sum local = 4.97279e-12, global = 1.60311e-14, cumulative = -1.98045e-09
smoothSolver:  Solving for epsilon, Initial residual = 0.000242773, Final residual = 2.29673e-07, No Iterations 1
smoothSolver:  Solving for k, Initial residual = 0.0107274, Final residual = 8.3381e-06, No Iterations 1
ExecutionTime = 15.18 s  ClockTime = 15 s

Time = 0.6

Courant Number mean: 0.0378214 max: 0.294652
smoothSolver:  Solving for Ux, Initial residual = 0.00373779, Final residual = 8.8751e-06, No Iterations 1
smoothSolver:  Solving for Uy, Initial residual = 0.00373793, Final residual = 8.87688e-06, No Iterations 1
smoothSolver:  Solving for Uz, Initial residual = 0.0102044, Final residual = 6.03608e-06, No Iterations 1
DICPCG:  Solving for p, Initial residual = 0.00115154, Final residual = 4.45316e-05, No Iterations 2
time step continuity errors : sum local = 2.34676e-10, global = -2.67382e-11, cumulative = -2.00719e-09
DICPCG:  Solving for p, Initial residual = 6.45558e-05, Final residual = 9.59368e-07, No Iterations 448
time step continuity errors : sum local = 5.05296e-12, global = 1.51559e-14, cumulative = -2.00717e-09
smoothSolver:  Solving for epsilon, Initial residual = 0.000239223, Final residual = 2.2662e-07, No Iterations 1
smoothSolver:  Solving for k, Initial residual = 0.0102817, Final residual = 8.11593e-06, No Iterations 1
ExecutionTime = 15.82 s  ClockTime = 16 s

Time = 0.625

Courant Number mean: 0.0378212 max: 0.294389
smoothSolver:  Solving for Ux, Initial residual = 0.00368342, Final residual = 8.73286e-06, No Iterations 1
smoothSolver:  Solving for Uy, Initial residual = 0.00368351, Final residual = 8.73549e-06, No Iterations 1
smoothSolver:  Solving for Uz, Initial residual = 0.0098331, Final residual = 5.80715e-06, No Iterations 1
DICPCG:  Solving for p, Initial residual = 0.00109455, Final residual = 4.32891e-05, No Iterations 2
time step continuity errors : sum local = 2.28152e-10, global = -2.27551e-11, cumulative = -2.02993e-09
DICPCG:  Solving for p, Initial residual = 6.27882e-05, Final residual = 9.19783e-07, No Iterations 475
time step continuity errors : sum local = 4.84529e-12, global = -4.91263e-14, cumulative = -2.02998e-09
smoothSolver:  Solving for epsilon, Initial residual = 0.000235848, Final residual = 2.2287e-07, No Iterations 1
smoothSolver:  Solving for k, Initial residual = 0.00987253, Final residual = 7.67099e-06, No Iterations 1
ExecutionTime = 16.5 s  ClockTime = 16 s

Time = 0.65

Courant Number mean: 0.0378209 max: 0.294148
smoothSolver:  Solving for Ux, Initial residual = 0.00363299, Final residual = 8.58252e-06, No Iterations 1
smoothSolver:  Solving for Uy, Initial residual = 0.00363303, Final residual = 8.58501e-06, No Iterations 1
smoothSolver:  Solving for Uz, Initial residual = 0.00948827, Final residual = 5.59576e-06, No Iterations 1
DICPCG:  Solving for p, Initial residual = 0.00102754, Final residual = 3.84363e-05, No Iterations 2
time step continuity errors : sum local = 2.02634e-10, global = -2.1206e-11, cumulative = -2.05118e-09
DICPCG:  Solving for p, Initial residual = 5.7866e-05, Final residual = 8.59889e-07, No Iterations 470
time step continuity errors : sum local = 4.53145e-12, global = -7.26576e-14, cumulative = -2.05126e-09
smoothSolver:  Solving for epsilon, Initial residual = 0.000232623, Final residual = 2.19926e-07, No Iterations 1
smoothSolver:  Solving for k, Initial residual = 0.00949557, Final residual = 7.41937e-06, No Iterations 1
ExecutionTime = 17.16 s  ClockTime = 17 s

Time = 0.675

Courant Number mean: 0.0378207 max: 0.293932
smoothSolver:  Solving for Ux, Initial residual = 0.00358642, Final residual = 8.40661e-06, No Iterations 1
smoothSolver:  Solving for Uy, Initial residual = 0.00358647, Final residual = 8.40897e-06, No Iterations 1
smoothSolver:  Solving for Uz, Initial residual = 0.0091671, Final residual = 5.39951e-06, No Iterations 1
DICPCG:  Solving for p, Initial residual = 0.000974194, Final residual = 3.6766e-05, No Iterations 2
time step continuity errors : sum local = 1.93913e-10, global = -1.7754e-11, cumulative = -2.06901e-09
DICPCG:  Solving for p, Initial residual = 5.61395e-05, Final residual = 8.46501e-07, No Iterations 472
time step continuity errors : sum local = 4.46301e-12, global = -3.6436e-14, cumulative = -2.06905e-09
smoothSolver:  Solving for epsilon, Initial residual = 0.000229576, Final residual = 2.18378e-07, No Iterations 1
smoothSolver:  Solving for k, Initial residual = 0.00914722, Final residual = 7.10983e-06, No Iterations 1
ExecutionTime = 17.85 s  ClockTime = 18 s

Time = 0.7

Courant Number mean: 0.0378205 max: 0.293742
smoothSolver:  Solving for Ux, Initial residual = 0.00353805, Final residual = 8.2389e-06, No Iterations 1
smoothSolver:  Solving for Uy, Initial residual = 0.00353813, Final residual = 8.24133e-06, No Iterations 1
smoothSolver:  Solving for Uz, Initial residual = 0.00886723, Final residual = 5.21677e-06, No Iterations 1
DICPCG:  Solving for p, Initial residual = 0.000929247, Final residual = 3.36595e-05, No Iterations 2
time step continuity errors : sum local = 1.77627e-10, global = -1.53478e-11, cumulative = -2.08439e-09
DICPCG:  Solving for p, Initial residual = 5.29786e-05, Final residual = 7.89442e-07, No Iterations 479
time step continuity errors : sum local = 4.16467e-12, global = -2.0884e-14, cumulative = -2.08441e-09
smoothSolver:  Solving for epsilon, Initial residual = 0.000226627, Final residual = 2.14678e-07, No Iterations 1
smoothSolver:  Solving for k, Initial residual = 0.00882426, Final residual = 6.79929e-06, No Iterations 1
ExecutionTime = 18.56 s  ClockTime = 19 s

Time = 0.725

Courant Number mean: 0.0378202 max: 0.29358
smoothSolver:  Solving for Ux, Initial residual = 0.00348814, Final residual = 8.06099e-06, No Iterations 1
smoothSolver:  Solving for Uy, Initial residual = 0.00348795, Final residual = 8.06381e-06, No Iterations 1
smoothSolver:  Solving for Uz, Initial residual = 0.00858665, Final residual = 5.04576e-06, No Iterations 1
DICPCG:  Solving for p, Initial residual = 0.000898406, Final residual = 3.07071e-05, No Iterations 2
time step continuity errors : sum local = 1.62151e-10, global = -1.22723e-11, cumulative = -2.09669e-09
DICPCG:  Solving for p, Initial residual = 4.97348e-05, Final residual = 9.68406e-07, No Iterations 479
time step continuity errors : sum local = 5.11217e-12, global = -9.96041e-14, cumulative = -2.09679e-09
smoothSolver:  Solving for epsilon, Initial residual = 0.000223755, Final residual = 2.1175e-07, No Iterations 1
smoothSolver:  Solving for k, Initial residual = 0.008524, Final residual = 6.5592e-06, No Iterations 1
ExecutionTime = 19.27 s  ClockTime = 19 s

Time = 0.75

Courant Number mean: 0.03782 max: 0.293446
smoothSolver:  Solving for Ux, Initial residual = 0.00343882, Final residual = 7.90724e-06, No Iterations 1
smoothSolver:  Solving for Uy, Initial residual = 0.0034387, Final residual = 7.9105e-06, No Iterations 1
smoothSolver:  Solving for Uz, Initial residual = 0.00832351, Final residual = 4.88602e-06, No Iterations 1
DICPCG:  Solving for p, Initial residual = 0.000851346, Final residual = 2.83599e-05, No Iterations 2
time step continuity errors : sum local = 1.49863e-10, global = -1.05771e-11, cumulative = -2.10736e-09
DICPCG:  Solving for p, Initial residual = 4.72042e-05, Final residual = 9.01858e-07, No Iterations 477
time step continuity errors : sum local = 4.7644e-12, global = -3.69946e-14, cumulative = -2.1074e-09
smoothSolver:  Solving for epsilon, Initial residual = 0.000220962, Final residual = 2.09688e-07, No Iterations 1
smoothSolver:  Solving for k, Initial residual = 0.0082441, Final residual = 6.36434e-06, No Iterations 1
ExecutionTime = 19.96 s  ClockTime = 20 s

Time = 0.775

Courant Number mean: 0.0378197 max: 0.29334
smoothSolver:  Solving for Ux, Initial residual = 0.00339215, Final residual = 7.75246e-06, No Iterations 1
smoothSolver:  Solving for Uy, Initial residual = 0.00339215, Final residual = 7.75481e-06, No Iterations 1
smoothSolver:  Solving for Uz, Initial residual = 0.00807624, Final residual = 4.7374e-06, No Iterations 1
DICPCG:  Solving for p, Initial residual = 0.000811317, Final residual = 2.63696e-05, No Iterations 2
time step continuity errors : sum local = 1.39457e-10, global = -8.9652e-12, cumulative = -2.11637e-09
DICPCG:  Solving for p, Initial residual = 4.63717e-05, Final residual = 9.25652e-07, No Iterations 478
time step continuity errors : sum local = 4.89423e-12, global = -4.59033e-14, cumulative = -2.11641e-09
smoothSolver:  Solving for epsilon, Initial residual = 0.000218245, Final residual = 2.07178e-07, No Iterations 1
smoothSolver:  Solving for k, Initial residual = 0.00798252, Final residual = 6.17773e-06, No Iterations 1
ExecutionTime = 20.64 s  ClockTime = 21 s

Time = 0.8

Courant Number mean: 0.0378195 max: 0.293264
smoothSolver:  Solving for Ux, Initial residual = 0.0033482, Final residual = 7.58731e-06, No Iterations 1
smoothSolver:  Solving for Uy, Initial residual = 0.00334825, Final residual = 7.5904e-06, No Iterations 1
smoothSolver:  Solving for Uz, Initial residual = 0.00784344, Final residual = 4.59898e-06, No Iterations 1
DICPCG:  Solving for p, Initial residual = 0.000765957, Final residual = 2.84636e-05, No Iterations 2
time step continuity errors : sum local = 1.50662e-10, global = -7.6644e-12, cumulative = -2.12408e-09
DICPCG:  Solving for p, Initial residual = 4.67276e-05, Final residual = 8.77615e-07, No Iterations 478
time step continuity errors : sum local = 4.6443e-12, global = -5.21108e-14, cumulative = -2.12413e-09
smoothSolver:  Solving for epsilon, Initial residual = 0.000215618, Final residual = 2.04567e-07, No Iterations 1
smoothSolver:  Solving for k, Initial residual = 0.00773754, Final residual = 5.99564e-06, No Iterations 1
ExecutionTime = 21.33 s  ClockTime = 21 s

Time = 0.825

Courant Number mean: 0.0378192 max: 0.293215
smoothSolver:  Solving for Ux, Initial residual = 0.00330485, Final residual = 7.39711e-06, No Iterations 1
smoothSolver:  Solving for Uy, Initial residual = 0.00330494, Final residual = 7.40052e-06, No Iterations 1
smoothSolver:  Solving for Uz, Initial residual = 0.00762383, Final residual = 4.46888e-06, No Iterations 1
DICPCG:  Solving for p, Initial residual = 0.000744505, Final residual = 2.64956e-05, No Iterations 2
time step continuity errors : sum local = 1.40373e-10, global = -6.20237e-12, cumulative = -2.13033e-09
DICPCG:  Solving for p, Initial residual = 4.54525e-05, Final residual = 8.30743e-07, No Iterations 479
time step continuity errors : sum local = 4.40042e-12, global = -5.11481e-14, cumulative = -2.13038e-09
smoothSolver:  Solving for epsilon, Initial residual = 0.000213072, Final residual = 2.02857e-07, No Iterations 1
smoothSolver:  Solving for k, Initial residual = 0.00750757, Final residual = 5.82269e-06, No Iterations 1
ExecutionTime = 22.03 s  ClockTime = 22 s

Time = 0.85

Courant Number mean: 0.037819 max: 0.293192
smoothSolver:  Solving for Ux, Initial residual = 0.00326453, Final residual = 7.207e-06, No Iterations 1
smoothSolver:  Solving for Uy, Initial residual = 0.00326453, Final residual = 7.2104e-06, No Iterations 1
smoothSolver:  Solving for Uz, Initial residual = 0.00741637, Final residual = 4.34638e-06, No Iterations 1
DICPCG:  Solving for p, Initial residual = 0.000717466, Final residual = 2.64666e-05, No Iterations 2
time step continuity errors : sum local = 1.40358e-10, global = -5.68796e-12, cumulative = -2.13607e-09
DICPCG:  Solving for p, Initial residual = 4.48804e-05, Final residual = 8.49199e-07, No Iterations 479
time step continuity errors : sum local = 4.50277e-12, global = -5.80911e-14, cumulative = -2.13613e-09
smoothSolver:  Solving for epsilon, Initial residual = 0.000210589, Final residual = 2.00262e-07, No Iterations 1
smoothSolver:  Solving for k, Initial residual = 0.00729131, Final residual = 5.66912e-06, No Iterations 1
ExecutionTime = 22.7 s  ClockTime = 23 s

Time = 0.875

Courant Number mean: 0.0378187 max: 0.293192
smoothSolver:  Solving for Ux, Initial residual = 0.00322534, Final residual = 6.99382e-06, No Iterations 1
smoothSolver:  Solving for Uy, Initial residual = 0.00322541, Final residual = 6.99723e-06, No Iterations 1
smoothSolver:  Solving for Uz, Initial residual = 0.00722009, Final residual = 4.23076e-06, No Iterations 1
DICPCG:  Solving for p, Initial residual = 0.000695714, Final residual = 2.55304e-05, No Iterations 2
time step continuity errors : sum local = 1.35537e-10, global = -4.50559e-12, cumulative = -2.14063e-09
DICPCG:  Solving for p, Initial residual = 4.42758e-05, Final residual = 8.90312e-07, No Iterations 479
time step continuity errors : sum local = 4.72594e-12, global = -6.99054e-14, cumulative = -2.1407e-09
smoothSolver:  Solving for epsilon, Initial residual = 0.000208171, Final residual = 1.98232e-07, No Iterations 1
smoothSolver:  Solving for k, Initial residual = 0.00708752, Final residual = 5.52784e-06, No Iterations 1
ExecutionTime = 23.4 s  ClockTime = 23 s

Time = 0.9

Courant Number mean: 0.0378185 max: 0.293212
smoothSolver:  Solving for Ux, Initial residual = 0.00318603, Final residual = 6.79601e-06, No Iterations 1
smoothSolver:  Solving for Uy, Initial residual = 0.00318607, Final residual = 6.79877e-06, No Iterations 1
smoothSolver:  Solving for Uz, Initial residual = 0.00703413, Final residual = 4.12127e-06, No Iterations 1
DICPCG:  Solving for p, Initial residual = 0.000664423, Final residual = 2.44173e-05, No Iterations 2
time step continuity errors : sum local = 1.29772e-10, global = -4.15283e-12, cumulative = -2.14486e-09
DICPCG:  Solving for p, Initial residual = 4.27578e-05, Final residual = 8.29093e-07, No Iterations 479
time step continuity errors : sum local = 4.40595e-12, global = -6.68984e-14, cumulative = -2.14492e-09
smoothSolver:  Solving for epsilon, Initial residual = 0.000205827, Final residual = 1.95359e-07, No Iterations 1
smoothSolver:  Solving for k, Initial residual = 0.00689511, Final residual = 5.41017e-06, No Iterations 1
ExecutionTime = 24.09 s  ClockTime = 24 s

Time = 0.925

Courant Number mean: 0.0378183 max: 0.29325
smoothSolver:  Solving for Ux, Initial residual = 0.0031483, Final residual = 6.64892e-06, No Iterations 1
smoothSolver:  Solving for Uy, Initial residual = 0.00314845, Final residual = 6.65268e-06, No Iterations 1
smoothSolver:  Solving for Uz, Initial residual = 0.00685779, Final residual = 4.01745e-06, No Iterations 1
DICPCG:  Solving for p, Initial residual = 0.000637562, Final residual = 2.33263e-05, No Iterations 2
time step continuity errors : sum local = 1.24116e-10, global = -3.67366e-12, cumulative = -2.1486e-09
DICPCG:  Solving for p, Initial residual = 4.13664e-05, Final residual = 8.21746e-07, No Iterations 479
time step continuity errors : sum local = 4.37198e-12, global = -8.6369e-14, cumulative = -2.14868e-09
smoothSolver:  Solving for epsilon, Initial residual = 0.000203526, Final residual = 1.93665e-07, No Iterations 1
smoothSolver:  Solving for k, Initial residual = 0.00671312, Final residual = 5.30105e-06, No Iterations 1
ExecutionTime = 24.77 s  ClockTime = 25 s

Time = 0.95

Courant Number mean: 0.037818 max: 0.293303
smoothSolver:  Solving for Ux, Initial residual = 0.00311151, Final residual = 6.50773e-06, No Iterations 1
smoothSolver:  Solving for Uy, Initial residual = 0.00311163, Final residual = 6.51116e-06, No Iterations 1
smoothSolver:  Solving for Uz, Initial residual = 0.0066903, Final residual = 3.91868e-06, No Iterations 1
DICPCG:  Solving for p, Initial residual = 0.000622985, Final residual = 2.35148e-05, No Iterations 2
time step continuity errors : sum local = 1.25266e-10, global = -3.65737e-12, cumulative = -2.15234e-09
DICPCG:  Solving for p, Initial residual = 4.2056e-05, Final residual = 8.25628e-07, No Iterations 479
time step continuity errors : sum local = 4.39781e-12, global = -9.90225e-14, cumulative = -2.15244e-09
smoothSolver:  Solving for epsilon, Initial residual = 0.000201299, Final residual = 1.90824e-07, No Iterations 1
smoothSolver:  Solving for k, Initial residual = 0.00654072, Final residual = 5.19165e-06, No Iterations 1
ExecutionTime = 25.46 s  ClockTime = 25 s

Time = 0.975

Courant Number mean: 0.0378178 max: 0.293367
smoothSolver:  Solving for Ux, Initial residual = 0.00307623, Final residual = 6.40148e-06, No Iterations 1
smoothSolver:  Solving for Uy, Initial residual = 0.00307632, Final residual = 6.40488e-06, No Iterations 1
smoothSolver:  Solving for Uz, Initial residual = 0.00653094, Final residual = 3.82379e-06, No Iterations 1
DICPCG:  Solving for p, Initial residual = 0.00058301, Final residual = 2.15535e-05, No Iterations 2
time step continuity errors : sum local = 1.14957e-10, global = -3.84765e-12, cumulative = -2.15629e-09
DICPCG:  Solving for p, Initial residual = 3.93342e-05, Final residual = 8.10116e-07, No Iterations 479
time step continuity errors : sum local = 4.32059e-12, global = -8.35107e-14, cumulative = -2.15637e-09
smoothSolver:  Solving for epsilon, Initial residual = 0.000199122, Final residual = 1.88415e-07, No Iterations 1
smoothSolver:  Solving for k, Initial residual = 0.00637715, Final residual = 5.06754e-06, No Iterations 1
ExecutionTime = 26.16 s  ClockTime = 26 s

Time = 1

Courant Number mean: 0.0378175 max: 0.293439
smoothSolver:  Solving for Ux, Initial residual = 0.00304046, Final residual = 6.30082e-06, No Iterations 1
smoothSolver:  Solving for Uy, Initial residual = 0.00304051, Final residual = 6.30375e-06, No Iterations 1
smoothSolver:  Solving for Uz, Initial residual = 0.0063791, Final residual = 3.73272e-06, No Iterations 1
DICPCG:  Solving for p, Initial residual = 0.000569989, Final residual = 2.08759e-05, No Iterations 2
time step continuity errors : sum local = 1.11483e-10, global = -2.98204e-12, cumulative = -2.15935e-09
DICPCG:  Solving for p, Initial residual = 3.86507e-05, Final residual = 8.79912e-07, No Iterations 479
time step continuity errors : sum local = 4.69872e-12, global = -1.19465e-13, cumulative = -2.15947e-09
smoothSolver:  Solving for epsilon, Initial residual = 0.000197004, Final residual = 1.85772e-07, No Iterations 1
smoothSolver:  Solving for k, Initial residual = 0.00622175, Final residual = 4.98064e-06, No Iterations 1
ExecutionTime = 26.99 s  ClockTime = 27 s

Time = 1.025

Courant Number mean: 0.0378173 max: 0.293517
smoothSolver:  Solving for Ux, Initial residual = 0.00300586, Final residual = 6.19379e-06, No Iterations 1
smoothSolver:  Solving for Uy, Initial residual = 0.00300593, Final residual = 6.19612e-06, No Iterations 1
smoothSolver:  Solving for Uz, Initial residual = 0.00623422, Final residual = 3.64525e-06, No Iterations 1
DICPCG:  Solving for p, Initial residual = 0.000552412, Final residual = 2.08357e-05, No Iterations 2
time step continuity errors : sum local = 1.11407e-10, global = -2.9607e-12, cumulative = -2.16243e-09
DICPCG:  Solving for p, Initial residual = 3.84137e-05, Final residual = 8.79702e-07, No Iterations 479
time step continuity errors : sum local = 4.70347e-12, global = -1.16979e-13, cumulative = -2.16255e-09
smoothSolver:  Solving for epsilon, Initial residual = 0.000194945, Final residual = 1.83002e-07, No Iterations 1
smoothSolver:  Solving for k, Initial residual = 0.00607391, Final residual = 4.87917e-06, No Iterations 1
ExecutionTime = 27.71 s  ClockTime = 28 s

Time = 1.05

Courant Number mean: 0.037817 max: 0.293596
smoothSolver:  Solving for Ux, Initial residual = 0.00297135, Final residual = 6.10935e-06, No Iterations 1
smoothSolver:  Solving for Uy, Initial residual = 0.00297146, Final residual = 6.11242e-06, No Iterations 1
smoothSolver:  Solving for Uz, Initial residual = 0.00609584, Final residual = 3.56152e-06, No Iterations 1
DICPCG:  Solving for p, Initial residual = 0.000528034, Final residual = 1.86448e-05, No Iterations 2
time step continuity errors : sum local = 9.98173e-11, global = -3.31631e-12, cumulative = -2.16587e-09
DICPCG:  Solving for p, Initial residual = 3.6355e-05, Final residual = 8.0925e-07, No Iterations 479
time step continuity errors : sum local = 4.33221e-12, global = -9.9343e-14, cumulative = -2.16597e-09
smoothSolver:  Solving for epsilon, Initial residual = 0.000192936, Final residual = 1.81613e-07, No Iterations 1
smoothSolver:  Solving for k, Initial residual = 0.00593306, Final residual = 4.80051e-06, No Iterations 1
ExecutionTime = 28.39 s  ClockTime = 28 s

Time = 1.075

Courant Number mean: 0.0378168 max: 0.293675
smoothSolver:  Solving for Ux, Initial residual = 0.00293742, Final residual = 6.02662e-06, No Iterations 1
smoothSolver:  Solving for Uy, Initial residual = 0.0029376, Final residual = 6.02987e-06, No Iterations 1
smoothSolver:  Solving for Uz, Initial residual = 0.00596355, Final residual = 3.4814e-06, No Iterations 1
DICPCG:  Solving for p, Initial residual = 0.000516178, Final residual = 1.7789e-05, No Iterations 2
time step continuity errors : sum local = 9.53546e-11, global = -4.35679e-12, cumulative = -2.17032e-09
DICPCG:  Solving for p, Initial residual = 3.5765e-05, Final residual = 8.14565e-07, No Iterations 479
time step continuity errors : sum local = 4.36615e-12, global = -1.00254e-13, cumulative = -2.17042e-09
smoothSolver:  Solving for epsilon, Initial residual = 0.000190989, Final residual = 1.78965e-07, No Iterations 1
smoothSolver:  Solving for k, Initial residual = 0.00579872, Final residual = 4.70255e-06, No Iterations 1
ExecutionTime = 29.09 s  ClockTime = 29 s

Time = 1.1

Courant Number mean: 0.0378165 max: 0.293751
smoothSolver:  Solving for Ux, Initial residual = 0.00290287, Final residual = 5.95209e-06, No Iterations 1
smoothSolver:  Solving for Uy, Initial residual = 0.00290298, Final residual = 5.95468e-06, No Iterations 1
smoothSolver:  Solving for Uz, Initial residual = 0.00583699, Final residual = 3.40445e-06, No Iterations 1
DICPCG:  Solving for p, Initial residual = 0.000498528, Final residual = 1.71157e-05, No Iterations 2
time step continuity errors : sum local = 9.18614e-11, global = -4.62861e-12, cumulative = -2.17505e-09
DICPCG:  Solving for p, Initial residual = 3.47729e-05, Final residual = 8.30584e-07, No Iterations 479
time step continuity errors : sum local = 4.45767e-12, global = -1.20558e-13, cumulative = -2.17517e-09
smoothSolver:  Solving for epsilon, Initial residual = 0.000189102, Final residual = 1.76761e-07, No Iterations 1
smoothSolver:  Solving for k, Initial residual = 0.00567044, Final residual = 4.65424e-06, No Iterations 1
ExecutionTime = 29.77 s  ClockTime = 30 s

Time = 1.125

Courant Number mean: 0.0378163 max: 0.293822
smoothSolver:  Solving for Ux, Initial residual = 0.00286775, Final residual = 5.89396e-06, No Iterations 1
smoothSolver:  Solving for Uy, Initial residual = 0.00286787, Final residual = 5.8968e-06, No Iterations 1
smoothSolver:  Solving for Uz, Initial residual = 0.00571576, Final residual = 3.33077e-06, No Iterations 1
DICPCG:  Solving for p, Initial residual = 0.000483311, Final residual = 1.698e-05, No Iterations 2
time step continuity errors : sum local = 9.12492e-11, global = -4.92494e-12, cumulative = -2.1801e-09
DICPCG:  Solving for p, Initial residual = 3.41353e-05, Final residual = 8.37543e-07, No Iterations 479
time step continuity errors : sum local = 4.50078e-12, global = -1.19284e-13, cumulative = -2.18022e-09
smoothSolver:  Solving for epsilon, Initial residual = 0.000187219, Final residual = 1.73757e-07, No Iterations 1
smoothSolver:  Solving for k, Initial residual = 0.00554782, Final residual = 4.5358e-06, No Iterations 1
ExecutionTime = 30.45 s  ClockTime = 30 s

Time = 1.15

Courant Number mean: 0.0378161 max: 0.293885
smoothSolver:  Solving for Ux, Initial residual = 0.00283394, Final residual = 5.84403e-06, No Iterations 1
smoothSolver:  Solving for Uy, Initial residual = 0.00283403, Final residual = 5.84607e-06, No Iterations 1
smoothSolver:  Solving for Uz, Initial residual = 0.00559947, Final residual = 3.26058e-06, No Iterations 1
DICPCG:  Solving for p, Initial residual = 0.000476253, Final residual = 1.63731e-05, No Iterations 2
time step continuity errors : sum local = 8.81002e-11, global = -4.65142e-12, cumulative = -2.18487e-09
DICPCG:  Solving for p, Initial residual = 3.37418e-05, Final residual = 8.01437e-07, No Iterations 479
time step continuity errors : sum local = 4.31229e-12, global = -1.20025e-13, cumulative = -2.18499e-09
smoothSolver:  Solving for epsilon, Initial residual = 0.000185409, Final residual = 1.72424e-07, No Iterations 1
smoothSolver:  Solving for k, Initial residual = 0.00543048, Final residual = 4.49667e-06, No Iterations 1
ExecutionTime = 31.14 s  ClockTime = 31 s

Time = 1.175

Courant Number mean: 0.0378158 max: 0.293939
smoothSolver:  Solving for Ux, Initial residual = 0.0028019, Final residual = 5.80831e-06, No Iterations 1
smoothSolver:  Solving for Uy, Initial residual = 0.00280203, Final residual = 5.81046e-06, No Iterations 1
smoothSolver:  Solving for Uz, Initial residual = 0.00548784, Final residual = 3.19312e-06, No Iterations 1
DICPCG:  Solving for p, Initial residual = 0.000459568, Final residual = 1.6761e-05, No Iterations 2
time step continuity errors : sum local = 9.03014e-11, global = -4.93964e-12, cumulative = -2.18993e-09
DICPCG:  Solving for p, Initial residual = 3.32235e-05, Final residual = 8.43856e-07, No Iterations 479
time step continuity errors : sum local = 4.54618e-12, global = -1.33874e-13, cumulative = -2.19006e-09
smoothSolver:  Solving for epsilon, Initial residual = 0.00018361, Final residual = 1.70131e-07, No Iterations 1
smoothSolver:  Solving for k, Initial residual = 0.00531806, Final residual = 4.38541e-06, No Iterations 1
ExecutionTime = 31.8 s  ClockTime = 32 s

Time = 1.2

Courant Number mean: 0.0378156 max: 0.293984
smoothSolver:  Solving for Ux, Initial residual = 0.00276919, Final residual = 5.76502e-06, No Iterations 1
smoothSolver:  Solving for Uy, Initial residual = 0.00276934, Final residual = 5.76676e-06, No Iterations 1
smoothSolver:  Solving for Uz, Initial residual = 0.00538068, Final residual = 3.12839e-06, No Iterations 1
DICPCG:  Solving for p, Initial residual = 0.000440435, Final residual = 1.5461e-05, No Iterations 2
time step continuity errors : sum local = 8.3401e-11, global = -4.97462e-12, cumulative = -2.19504e-09
DICPCG:  Solving for p, Initial residual = 3.19464e-05, Final residual = 8.37066e-07, No Iterations 479
time step continuity errors : sum local = 4.51522e-12, global = -1.25386e-13, cumulative = -2.19516e-09
smoothSolver:  Solving for epsilon, Initial residual = 0.000181893, Final residual = 1.67337e-07, No Iterations 1
smoothSolver:  Solving for k, Initial residual = 0.00521024, Final residual = 4.33983e-06, No Iterations 1
ExecutionTime = 32.47 s  ClockTime = 32 s

Time = 1.225

Courant Number mean: 0.0378153 max: 0.294017
smoothSolver:  Solving for Ux, Initial residual = 0.00273766, Final residual = 5.70556e-06, No Iterations 1
smoothSolver:  Solving for Uy, Initial residual = 0.00273784, Final residual = 5.70723e-06, No Iterations 1
smoothSolver:  Solving for Uz, Initial residual = 0.0052777, Final residual = 3.06656e-06, No Iterations 1
DICPCG:  Solving for p, Initial residual = 0.000429887, Final residual = 1.49582e-05, No Iterations 2
time step continuity errors : sum local = 8.07889e-11, global = -4.91171e-12, cumulative = -2.20007e-09
DICPCG:  Solving for p, Initial residual = 3.14429e-05, Final residual = 8.03394e-07, No Iterations 479
time step continuity errors : sum local = 4.33898e-12, global = -1.21721e-13, cumulative = -2.20019e-09
smoothSolver:  Solving for epsilon, Initial residual = 0.000180215, Final residual = 1.67284e-07, No Iterations 1
smoothSolver:  Solving for k, Initial residual = 0.00510675, Final residual = 4.24137e-06, No Iterations 1
ExecutionTime = 33.14 s  ClockTime = 33 s

Time = 1.25

Courant Number mean: 0.0378151 max: 0.29404
smoothSolver:  Solving for Ux, Initial residual = 0.002707, Final residual = 5.65255e-06, No Iterations 1
smoothSolver:  Solving for Uy, Initial residual = 0.00270715, Final residual = 5.65389e-06, No Iterations 1
smoothSolver:  Solving for Uz, Initial residual = 0.00517869, Final residual = 3.00704e-06, No Iterations 1
DICPCG:  Solving for p, Initial residual = 0.000416684, Final residual = 1.5247e-05, No Iterations 2
time step continuity errors : sum local = 8.24502e-11, global = -4.6895e-12, cumulative = -2.20488e-09
DICPCG:  Solving for p, Initial residual = 3.1175e-05, Final residual = 9.32411e-07, No Iterations 478
time step continuity errors : sum local = 5.04197e-12, global = -1.58994e-13, cumulative = -2.20504e-09
smoothSolver:  Solving for epsilon, Initial residual = 0.000178593, Final residual = 1.65384e-07, No Iterations 1
smoothSolver:  Solving for k, Initial residual = 0.00500731, Final residual = 4.17241e-06, No Iterations 1
ExecutionTime = 33.82 s  ClockTime = 34 s

Time = 1.275

Courant Number mean: 0.0378148 max: 0.294051
smoothSolver:  Solving for Ux, Initial residual = 0.00267492, Final residual = 5.59651e-06, No Iterations 1
smoothSolver:  Solving for Uy, Initial residual = 0.00267521, Final residual = 5.59804e-06, No Iterations 1
smoothSolver:  Solving for Uz, Initial residual = 0.00508339, Final residual = 2.94983e-06, No Iterations 1
DICPCG:  Solving for p, Initial residual = 0.000409624, Final residual = 1.50696e-05, No Iterations 2
time step continuity errors : sum local = 8.15907e-11, global = -4.62243e-12, cumulative = -2.20967e-09
DICPCG:  Solving for p, Initial residual = 3.09981e-05, Final residual = 8.74995e-07, No Iterations 478
time step continuity errors : sum local = 4.73732e-12, global = -1.43118e-13, cumulative = -2.20981e-09
smoothSolver:  Solving for epsilon, Initial residual = 0.000177019, Final residual = 1.64071e-07, No Iterations 1
smoothSolver:  Solving for k, Initial residual = 0.0049117, Final residual = 4.07972e-06, No Iterations 1
ExecutionTime = 34.51 s  ClockTime = 35 s

Time = 1.3

Courant Number mean: 0.0378146 max: 0.294051
smoothSolver:  Solving for Ux, Initial residual = 0.00264338, Final residual = 5.53201e-06, No Iterations 1
smoothSolver:  Solving for Uy, Initial residual = 0.00264366, Final residual = 5.53401e-06, No Iterations 1
smoothSolver:  Solving for Uz, Initial residual = 0.00499157, Final residual = 2.89464e-06, No Iterations 1
DICPCG:  Solving for p, Initial residual = 0.00040218, Final residual = 1.50915e-05, No Iterations 2
time step continuity errors : sum local = 8.18097e-11, global = -4.39015e-12, cumulative = -2.2142e-09
DICPCG:  Solving for p, Initial residual = 3.09356e-05, Final residual = 8.2379e-07, No Iterations 478
time step continuity errors : sum local = 4.46562e-12, global = -1.39267e-13, cumulative = -2.21434e-09
smoothSolver:  Solving for epsilon, Initial residual = 0.000175449, Final residual = 1.62037e-07, No Iterations 1
smoothSolver:  Solving for k, Initial residual = 0.00481967, Final residual = 3.97694e-06, No Iterations 1
ExecutionTime = 35.19 s  ClockTime = 35 s

Time = 1.325

Courant Number mean: 0.0378143 max: 0.29404
smoothSolver:  Solving for Ux, Initial residual = 0.00261328, Final residual = 5.46849e-06, No Iterations 1
smoothSolver:  Solving for Uy, Initial residual = 0.00261363, Final residual = 5.4702e-06, No Iterations 1
smoothSolver:  Solving for Uz, Initial residual = 0.00490307, Final residual = 2.84162e-06, No Iterations 1
DICPCG:  Solving for p, Initial residual = 0.000394254, Final residual = 1.40568e-05, No Iterations 2
time step continuity errors : sum local = 7.62943e-11, global = -4.05472e-12, cumulative = -2.21839e-09
DICPCG:  Solving for p, Initial residual = 3.00221e-05, Final residual = 9.88676e-07, No Iterations 477
time step continuity errors : sum local = 5.36599e-12, global = -1.56598e-13, cumulative = -2.21855e-09
smoothSolver:  Solving for epsilon, Initial residual = 0.00017394, Final residual = 1.61164e-07, No Iterations 1
smoothSolver:  Solving for k, Initial residual = 0.00473103, Final residual = 3.89062e-06, No Iterations 1
ExecutionTime = 35.87 s  ClockTime = 36 s

Time = 1.35

Courant Number mean: 0.0378141 max: 0.29402
smoothSolver:  Solving for Ux, Initial residual = 0.00258434, Final residual = 5.39296e-06, No Iterations 1
smoothSolver:  Solving for Uy, Initial residual = 0.00258459, Final residual = 5.39427e-06, No Iterations 1
smoothSolver:  Solving for Uz, Initial residual = 0.00481769, Final residual = 2.79065e-06, No Iterations 1
DICPCG:  Solving for p, Initial residual = 0.000391361, Final residual = 1.34317e-05, No Iterations 2
time step continuity errors : sum local = 7.29898e-11, global = -3.42757e-12, cumulative = -2.22198e-09
DICPCG:  Solving for p, Initial residual = 2.96405e-05, Final residual = 9.81608e-07, No Iterations 477
time step continuity errors : sum local = 5.33405e-12, global = -1.59138e-13, cumulative = -2.22214e-09
smoothSolver:  Solving for epsilon, Initial residual = 0.000172453, Final residual = 1.59159e-07, No Iterations 1
smoothSolver:  Solving for k, Initial residual = 0.00464559, Final residual = 3.80654e-06, No Iterations 1
ExecutionTime = 36.55 s  ClockTime = 37 s

Time = 1.375

Courant Number mean: 0.0378138 max: 0.29399
smoothSolver:  Solving for Ux, Initial residual = 0.00255621, Final residual = 5.31059e-06, No Iterations 1
smoothSolver:  Solving for Uy, Initial residual = 0.00255651, Final residual = 5.31173e-06, No Iterations 1
smoothSolver:  Solving for Uz, Initial residual = 0.00473528, Final residual = 2.7414e-06, No Iterations 1
DICPCG:  Solving for p, Initial residual = 0.00039273, Final residual = 1.39601e-05, No Iterations 2
time step continuity errors : sum local = 7.59518e-11, global = -3.20048e-12, cumulative = -2.22534e-09
DICPCG:  Solving for p, Initial residual = 3.02615e-05, Final residual = 9.52479e-07, No Iterations 477
time step continuity errors : sum local = 5.18192e-12, global = -1.32043e-13, cumulative = -2.22547e-09
smoothSolver:  Solving for epsilon, Initial residual = 0.00017096, Final residual = 1.58178e-07, No Iterations 1
smoothSolver:  Solving for k, Initial residual = 0.00456318, Final residual = 3.74309e-06, No Iterations 1
ExecutionTime = 37.24 s  ClockTime = 37 s

Time = 1.4

Courant Number mean: 0.0378136 max: 0.293953
smoothSolver:  Solving for Ux, Initial residual = 0.00253029, Final residual = 5.21924e-06, No Iterations 1
smoothSolver:  Solving for Uy, Initial residual = 0.00253052, Final residual = 5.2203e-06, No Iterations 1
smoothSolver:  Solving for Uz, Initial residual = 0.00465567, Final residual = 2.694e-06, No Iterations 1
DICPCG:  Solving for p, Initial residual = 0.000381127, Final residual = 1.32603e-05, No Iterations 2
time step continuity errors : sum local = 7.22303e-11, global = -3.01595e-12, cumulative = -2.22848e-09
DICPCG:  Solving for p, Initial residual = 2.95419e-05, Final residual = 9.21325e-07, No Iterations 477
time step continuity errors : sum local = 5.01848e-12, global = -1.23506e-13, cumulative = -2.22861e-09
smoothSolver:  Solving for epsilon, Initial residual = 0.000169537, Final residual = 1.55969e-07, No Iterations 1
smoothSolver:  Solving for k, Initial residual = 0.00448365, Final residual = 3.64921e-06, No Iterations 1
ExecutionTime = 37.94 s  ClockTime = 38 s

Time = 1.425

Courant Number mean: 0.0378133 max: 0.293908
smoothSolver:  Solving for Ux, Initial residual = 0.00250385, Final residual = 5.13207e-06, No Iterations 1
smoothSolver:  Solving for Uy, Initial residual = 0.00250407, Final residual = 5.13356e-06, No Iterations 1
smoothSolver:  Solving for Uz, Initial residual = 0.00457871, Final residual = 2.64829e-06, No Iterations 1
DICPCG:  Solving for p, Initial residual = 0.000371817, Final residual = 1.35967e-05, No Iterations 2
time step continuity errors : sum local = 7.41526e-11, global = -2.96482e-12, cumulative = -2.23157e-09
DICPCG:  Solving for p, Initial residual = 2.97198e-05, Final residual = 9.67447e-07, No Iterations 476
time step continuity errors : sum local = 5.27612e-12, global = -1.17441e-13, cumulative = -2.23169e-09
smoothSolver:  Solving for epsilon, Initial residual = 0.000168108, Final residual = 1.54833e-07, No Iterations 1
smoothSolver:  Solving for k, Initial residual = 0.00440683, Final residual = 3.5933e-06, No Iterations 1
ExecutionTime = 38.62 s  ClockTime = 39 s

Time = 1.45

Courant Number mean: 0.0378131 max: 0.293858
smoothSolver:  Solving for Ux, Initial residual = 0.00247745, Final residual = 5.02628e-06, No Iterations 1
smoothSolver:  Solving for Uy, Initial residual = 0.00247763, Final residual = 5.02734e-06, No Iterations 1
smoothSolver:  Solving for Uz, Initial residual = 0.00450426, Final residual = 2.60414e-06, No Iterations 1
DICPCG:  Solving for p, Initial residual = 0.000361236, Final residual = 1.36847e-05, No Iterations 2
time step continuity errors : sum local = 7.47227e-11, global = -1.98143e-12, cumulative = -2.23367e-09
DICPCG:  Solving for p, Initial residual = 2.96049e-05, Final residual = 9.48495e-07, No Iterations 476
time step continuity errors : sum local = 5.17905e-12, global = -1.27249e-13, cumulative = -2.2338e-09
smoothSolver:  Solving for epsilon, Initial residual = 0.000166726, Final residual = 1.5303e-07, No Iterations 1
smoothSolver:  Solving for k, Initial residual = 0.00433256, Final residual = 3.52227e-06, No Iterations 1
ExecutionTime = 39.32 s  ClockTime = 39 s

Time = 1.475

Courant Number mean: 0.0378128 max: 0.293805
smoothSolver:  Solving for Ux, Initial residual = 0.00245274, Final residual = 4.92265e-06, No Iterations 1
smoothSolver:  Solving for Uy, Initial residual = 0.0024529, Final residual = 4.92393e-06, No Iterations 1
smoothSolver:  Solving for Uz, Initial residual = 0.00443224, Final residual = 2.56117e-06, No Iterations 1
DICPCG:  Solving for p, Initial residual = 0.000357272, Final residual = 1.34979e-05, No Iterations 2
time step continuity errors : sum local = 7.37917e-11, global = -1.34381e-12, cumulative = -2.23514e-09
DICPCG:  Solving for p, Initial residual = 2.95808e-05, Final residual = 9.32344e-07, No Iterations 474
time step continuity errors : sum local = 5.09703e-12, global = -1.16702e-13, cumulative = -2.23526e-09
smoothSolver:  Solving for epsilon, Initial residual = 0.000165388, Final residual = 1.51033e-07, No Iterations 1
smoothSolver:  Solving for k, Initial residual = 0.00426071, Final residual = 3.43731e-06, No Iterations 1
ExecutionTime = 40.01 s  ClockTime = 40 s

Time = 1.5

Courant Number mean: 0.0378126 max: 0.293748
smoothSolver:  Solving for Ux, Initial residual = 0.00242857, Final residual = 4.81237e-06, No Iterations 1
smoothSolver:  Solving for Uy, Initial residual = 0.00242872, Final residual = 4.81378e-06, No Iterations 1
smoothSolver:  Solving for Uz, Initial residual = 0.00436251, Final residual = 2.51955e-06, No Iterations 1
DICPCG:  Solving for p, Initial residual = 0.000352614, Final residual = 1.32484e-05, No Iterations 2
time step continuity errors : sum local = 7.25144e-11, global = -8.76418e-13, cumulative = -2.23614e-09
DICPCG:  Solving for p, Initial residual = 2.88432e-05, Final residual = 8.56706e-07, No Iterations 475
time step continuity errors : sum local = 4.68907e-12, global = -1.24366e-13, cumulative = -2.23626e-09
smoothSolver:  Solving for epsilon, Initial residual = 0.000164035, Final residual = 1.49976e-07, No Iterations 1
smoothSolver:  Solving for k, Initial residual = 0.00419119, Final residual = 3.39068e-06, No Iterations 1
ExecutionTime = 40.82 s  ClockTime = 41 s

Time = 1.525

Courant Number mean: 0.0378124 max: 0.29369
smoothSolver:  Solving for Ux, Initial residual = 0.00240603, Final residual = 4.71699e-06, No Iterations 1
smoothSolver:  Solving for Uy, Initial residual = 0.00240617, Final residual = 4.71821e-06, No Iterations 1
smoothSolver:  Solving for Uz, Initial residual = 0.00429496, Final residual = 2.47929e-06, No Iterations 1
DICPCG:  Solving for p, Initial residual = 0.000347246, Final residual = 1.35751e-05, No Iterations 2
time step continuity errors : sum local = 7.43899e-11, global = -7.01149e-13, cumulative = -2.23696e-09
DICPCG:  Solving for p, Initial residual = 2.92737e-05, Final residual = 8.34892e-07, No Iterations 473
time step continuity errors : sum local = 4.57508e-12, global = -4.7858e-14, cumulative = -2.23701e-09
smoothSolver:  Solving for epsilon, Initial residual = 0.000162732, Final residual = 1.48793e-07, No Iterations 1
smoothSolver:  Solving for k, Initial residual = 0.0041239, Final residual = 3.32057e-06, No Iterations 1
ExecutionTime = 41.55 s  ClockTime = 42 s

Time = 1.55

Courant Number mean: 0.0378121 max: 0.293631
smoothSolver:  Solving for Ux, Initial residual = 0.00238459, Final residual = 4.62843e-06, No Iterations 1
smoothSolver:  Solving for Uy, Initial residual = 0.00238476, Final residual = 4.62946e-06, No Iterations 1
smoothSolver:  Solving for Uz, Initial residual = 0.00422951, Final residual = 2.44038e-06, No Iterations 1
DICPCG:  Solving for p, Initial residual = 0.000341351, Final residual = 1.38716e-05, No Iterations 2
time step continuity errors : sum local = 7.61053e-11, global = 1.359e-13, cumulative = -2.23687e-09
DICPCG:  Solving for p, Initial residual = 2.89852e-05, Final residual = 9.83927e-07, No Iterations 473
time step continuity errors : sum local = 5.39824e-12, global = -1.25283e-13, cumulative = -2.237e-09
smoothSolver:  Solving for epsilon, Initial residual = 0.000161459, Final residual = 1.4741e-07, No Iterations 1
smoothSolver:  Solving for k, Initial residual = 0.00405873, Final residual = 3.26835e-06, No Iterations 1
ExecutionTime = 42.24 s  ClockTime = 42 s

Time = 1.575

Courant Number mean: 0.0378119 max: 0.293573
smoothSolver:  Solving for Ux, Initial residual = 0.00236296, Final residual = 4.53535e-06, No Iterations 1
smoothSolver:  Solving for Uy, Initial residual = 0.00236328, Final residual = 4.53687e-06, No Iterations 1
smoothSolver:  Solving for Uz, Initial residual = 0.00416604, Final residual = 2.40248e-06, No Iterations 1
DICPCG:  Solving for p, Initial residual = 0.00035214, Final residual = 1.35105e-05, No Iterations 2
time step continuity errors : sum local = 7.42119e-11, global = 1.53116e-13, cumulative = -2.23685e-09
DICPCG:  Solving for p, Initial residual = 2.95074e-05, Final residual = 9.38981e-07, No Iterations 474
time step continuity errors : sum local = 5.15772e-12, global = -1.16502e-13, cumulative = -2.23696e-09
smoothSolver:  Solving for epsilon, Initial residual = 0.000160222, Final residual = 1.46129e-07, No Iterations 1
smoothSolver:  Solving for k, Initial residual = 0.00399558, Final residual = 3.20997e-06, No Iterations 1
ExecutionTime = 42.92 s  ClockTime = 43 s

Time = 1.6

Courant Number mean: 0.0378116 max: 0.293518
smoothSolver:  Solving for Ux, Initial residual = 0.00234302, Final residual = 4.43182e-06, No Iterations 1
smoothSolver:  Solving for Uy, Initial residual = 0.00234325, Final residual = 4.43271e-06, No Iterations 1
smoothSolver:  Solving for Uz, Initial residual = 0.00410449, Final residual = 2.3656e-06, No Iterations 1
DICPCG:  Solving for p, Initial residual = 0.000332127, Final residual = 1.30605e-05, No Iterations 2
time step continuity errors : sum local = 7.18241e-11, global = 1.12902e-12, cumulative = -2.23583e-09
DICPCG:  Solving for p, Initial residual = 2.7803e-05, Final residual = 9.28853e-07, No Iterations 472
time step continuity errors : sum local = 5.10806e-12, global = -7.3518e-14, cumulative = -2.23591e-09
smoothSolver:  Solving for epsilon, Initial residual = 0.000158994, Final residual = 1.45771e-07, No Iterations 1
smoothSolver:  Solving for k, Initial residual = 0.00393435, Final residual = 3.15959e-06, No Iterations 1
ExecutionTime = 43.59 s  ClockTime = 44 s

Time = 1.625

Courant Number mean: 0.0378114 max: 0.293465
smoothSolver:  Solving for Ux, Initial residual = 0.00232241, Final residual = 4.33495e-06, No Iterations 1
smoothSolver:  Solving for Uy, Initial residual = 0.00232268, Final residual = 4.33627e-06, No Iterations 1
smoothSolver:  Solving for Uz, Initial residual = 0.00404474, Final residual = 2.33017e-06, No Iterations 1
DICPCG:  Solving for p, Initial residual = 0.000340283, Final residual = 1.33838e-05, No Iterations 2
time step continuity errors : sum local = 7.36873e-11, global = 6.90766e-13, cumulative = -2.23522e-09
DICPCG:  Solving for p, Initial residual = 2.84985e-05, Final residual = 9.46484e-07, No Iterations 471
time step continuity errors : sum local = 5.21105e-12, global = -4.96423e-14, cumulative = -2.23527e-09
smoothSolver:  Solving for epsilon, Initial residual = 0.000157801, Final residual = 1.44104e-07, No Iterations 1
smoothSolver:  Solving for k, Initial residual = 0.00387495, Final residual = 3.10435e-06, No Iterations 1
ExecutionTime = 44.27 s  ClockTime = 44 s

Time = 1.65

Courant Number mean: 0.0378111 max: 0.293415
smoothSolver:  Solving for Ux, Initial residual = 0.00230116, Final residual = 4.24902e-06, No Iterations 1
smoothSolver:  Solving for Uy, Initial residual = 0.00230144, Final residual = 4.24975e-06, No Iterations 1
smoothSolver:  Solving for Uz, Initial residual = 0.00398692, Final residual = 2.29601e-06, No Iterations 1
DICPCG:  Solving for p, Initial residual = 0.000336434, Final residual = 1.36783e-05, No Iterations 2
time step continuity errors : sum local = 7.53959e-11, global = 8.74284e-13, cumulative = -2.23439e-09
DICPCG:  Solving for p, Initial residual = 2.88409e-05, Final residual = 9.45654e-07, No Iterations 470
time step continuity errors : sum local = 5.21255e-12, global = -7.9352e-14, cumulative = -2.23447e-09
smoothSolver:  Solving for epsilon, Initial residual = 0.000156643, Final residual = 1.42905e-07, No Iterations 1
smoothSolver:  Solving for k, Initial residual = 0.0038173, Final residual = 3.04573e-06, No Iterations 1
ExecutionTime = 44.96 s  ClockTime = 45 s

Time = 1.675

Courant Number mean: 0.0378109 max: 0.29337
smoothSolver:  Solving for Ux, Initial residual = 0.00228286, Final residual = 4.16374e-06, No Iterations 1
smoothSolver:  Solving for Uy, Initial residual = 0.00228301, Final residual = 4.16464e-06, No Iterations 1
smoothSolver:  Solving for Uz, Initial residual = 0.00393106, Final residual = 2.26292e-06, No Iterations 1
DICPCG:  Solving for p, Initial residual = 0.000328979, Final residual = 1.29209e-05, No Iterations 2
time step continuity errors : sum local = 7.13027e-11, global = 3.28232e-13, cumulative = -2.23414e-09
DICPCG:  Solving for p, Initial residual = 2.7698e-05, Final residual = 9.16064e-07, No Iterations 474
time step continuity errors : sum local = 5.05518e-12, global = -1.18493e-14, cumulative = -2.23415e-09
smoothSolver:  Solving for epsilon, Initial residual = 0.000155452, Final residual = 1.41632e-07, No Iterations 1
smoothSolver:  Solving for k, Initial residual = 0.00376131, Final residual = 3.01489e-06, No Iterations 1
ExecutionTime = 45.65 s  ClockTime = 46 s

Time = 1.7

Courant Number mean: 0.0378106 max: 0.29333
smoothSolver:  Solving for Ux, Initial residual = 0.00226346, Final residual = 4.08203e-06, No Iterations 1
smoothSolver:  Solving for Uy, Initial residual = 0.00226368, Final residual = 4.0833e-06, No Iterations 1
smoothSolver:  Solving for Uz, Initial residual = 0.00387678, Final residual = 2.23067e-06, No Iterations 1
DICPCG:  Solving for p, Initial residual = 0.000325795, Final residual = 1.35934e-05, No Iterations 2
time step continuity errors : sum local = 7.50989e-11, global = 1.26588e-12, cumulative = -2.23289e-09
DICPCG:  Solving for p, Initial residual = 2.8369e-05, Final residual = 9.03735e-07, No Iterations 474
time step continuity errors : sum local = 4.99279e-12, global = -1.07331e-13, cumulative = -2.233e-09
smoothSolver:  Solving for epsilon, Initial residual = 0.000154337, Final residual = 1.40188e-07, No Iterations 1
smoothSolver:  Solving for k, Initial residual = 0.0037069, Final residual = 2.95715e-06, No Iterations 1
ExecutionTime = 46.34 s  ClockTime = 46 s

Time = 1.725

Courant Number mean: 0.0378104 max: 0.293295
smoothSolver:  Solving for Ux, Initial residual = 0.00224485, Final residual = 4.018e-06, No Iterations 1
smoothSolver:  Solving for Uy, Initial residual = 0.0022451, Final residual = 4.01921e-06, No Iterations 1
smoothSolver:  Solving for Uz, Initial residual = 0.00382402, Final residual = 2.19917e-06, No Iterations 1
DICPCG:  Solving for p, Initial residual = 0.000303141, Final residual = 1.26779e-05, No Iterations 2
time step continuity errors : sum local = 7.01214e-11, global = 9.63173e-13, cumulative = -2.23203e-09
DICPCG:  Solving for p, Initial residual = 2.66472e-05, Final residual = 9.86191e-07, No Iterations 471
time step continuity errors : sum local = 5.45469e-12, global = -4.88926e-14, cumulative = -2.23208e-09
smoothSolver:  Solving for epsilon, Initial residual = 0.000153228, Final residual = 1.3888e-07, No Iterations 1
smoothSolver:  Solving for k, Initial residual = 0.00365401, Final residual = 2.90868e-06, No Iterations 1
ExecutionTime = 47.04 s  ClockTime = 47 s

Time = 1.75

Courant Number mean: 0.0378101 max: 0.293265
smoothSolver:  Solving for Ux, Initial residual = 0.00222721, Final residual = 3.96363e-06, No Iterations 1
smoothSolver:  Solving for Uy, Initial residual = 0.00222735, Final residual = 3.96457e-06, No Iterations 1
smoothSolver:  Solving for Uz, Initial residual = 0.00377273, Final residual = 2.16846e-06, No Iterations 1
DICPCG:  Solving for p, Initial residual = 0.000298854, Final residual = 1.30038e-05, No Iterations 2
time step continuity errors : sum local = 7.20067e-11, global = 7.06462e-13, cumulative = -2.23137e-09
DICPCG:  Solving for p, Initial residual = 2.6653e-05, Final residual = 9.47313e-07, No Iterations 471
time step continuity errors : sum local = 5.24568e-12, global = -1.26591e-13, cumulative = -2.2315e-09
smoothSolver:  Solving for epsilon, Initial residual = 0.000152117, Final residual = 1.37645e-07, No Iterations 1
smoothSolver:  Solving for k, Initial residual = 0.00360257, Final residual = 2.87031e-06, No Iterations 1
ExecutionTime = 47.79 s  ClockTime = 48 s

Time = 1.775

Courant Number mean: 0.0378099 max: 0.29324
smoothSolver:  Solving for Ux, Initial residual = 0.00221049, Final residual = 3.90584e-06, No Iterations 1
smoothSolver:  Solving for Uy, Initial residual = 0.00221064, Final residual = 3.90673e-06, No Iterations 1
smoothSolver:  Solving for Uz, Initial residual = 0.00372286, Final residual = 2.13855e-06, No Iterations 1
DICPCG:  Solving for p, Initial residual = 0.000296825, Final residual = 1.287e-05, No Iterations 2
time step continuity errors : sum local = 7.13472e-11, global = -5.95082e-14, cumulative = -2.23156e-09
DICPCG:  Solving for p, Initial residual = 2.64865e-05, Final residual = 9.30128e-07, No Iterations 474
time step continuity errors : sum local = 5.15639e-12, global = -3.22408e-14, cumulative = -2.23159e-09
smoothSolver:  Solving for epsilon, Initial residual = 0.000151062, Final residual = 1.36271e-07, No Iterations 1
smoothSolver:  Solving for k, Initial residual = 0.00355251, Final residual = 2.82059e-06, No Iterations 1
ExecutionTime = 48.49 s  ClockTime = 48 s

Time = 1.8

Courant Number mean: 0.0378096 max: 0.29322
smoothSolver:  Solving for Ux, Initial residual = 0.00219449, Final residual = 3.84571e-06, No Iterations 1
smoothSolver:  Solving for Uy, Initial residual = 0.00219465, Final residual = 3.84643e-06, No Iterations 1
smoothSolver:  Solving for Uz, Initial residual = 0.00367431, Final residual = 2.10947e-06, No Iterations 1
DICPCG:  Solving for p, Initial residual = 0.000286456, Final residual = 1.29013e-05, No Iterations 2
time step continuity errors : sum local = 7.16017e-11, global = -2.46853e-13, cumulative = -2.23184e-09
DICPCG:  Solving for p, Initial residual = 2.57831e-05, Final residual = 8.95275e-07, No Iterations 471
time step continuity errors : sum local = 4.96882e-12, global = -4.14992e-15, cumulative = -2.23184e-09
smoothSolver:  Solving for epsilon, Initial residual = 0.000149978, Final residual = 1.34774e-07, No Iterations 1
smoothSolver:  Solving for k, Initial residual = 0.00350379, Final residual = 2.78885e-06, No Iterations 1
ExecutionTime = 49.15 s  ClockTime = 49 s

Time = 1.825

Courant Number mean: 0.0378094 max: 0.293206
smoothSolver:  Solving for Ux, Initial residual = 0.00217841, Final residual = 3.78353e-06, No Iterations 1
smoothSolver:  Solving for Uy, Initial residual = 0.00217859, Final residual = 3.7845e-06, No Iterations 1
smoothSolver:  Solving for Uz, Initial residual = 0.00362705, Final residual = 2.0811e-06, No Iterations 1
DICPCG:  Solving for p, Initial residual = 0.000281996, Final residual = 1.28646e-05, No Iterations 2
time step continuity errors : sum local = 7.14795e-11, global = -2.73623e-13, cumulative = -2.23212e-09
DICPCG:  Solving for p, Initial residual = 2.58192e-05, Final residual = 9.85989e-07, No Iterations 473
time step continuity errors : sum local = 5.47853e-12, global = -8.41113e-15, cumulative = -2.23213e-09
smoothSolver:  Solving for epsilon, Initial residual = 0.000148951, Final residual = 1.33702e-07, No Iterations 1
smoothSolver:  Solving for k, Initial residual = 0.00345633, Final residual = 2.73658e-06, No Iterations 1
ExecutionTime = 49.83 s  ClockTime = 50 s

Time = 1.85

Courant Number mean: 0.0378091 max: 0.293196
smoothSolver:  Solving for Ux, Initial residual = 0.00216301, Final residual = 3.72277e-06, No Iterations 1
smoothSolver:  Solving for Uy, Initial residual = 0.00216316, Final residual = 3.72361e-06, No Iterations 1
smoothSolver:  Solving for Uz, Initial residual = 0.003581, Final residual = 2.0534e-06, No Iterations 1
DICPCG:  Solving for p, Initial residual = 0.000275249, Final residual = 1.27742e-05, No Iterations 2
time step continuity errors : sum local = 7.10577e-11, global = -6.03986e-13, cumulative = -2.23273e-09
DICPCG:  Solving for p, Initial residual = 2.54599e-05, Final residual = 8.79525e-07, No Iterations 474
time step continuity errors : sum local = 4.89254e-12, global = 1.70418e-14, cumulative = -2.23271e-09
smoothSolver:  Solving for epsilon, Initial residual = 0.000147893, Final residual = 1.3226e-07, No Iterations 1
smoothSolver:  Solving for k, Initial residual = 0.00341009, Final residual = 2.70633e-06, No Iterations 1
[...]
smoothSolver:  Solving for Uz, Initial residual = 0.000156984, Final residual = 8.32731e-08, No Iterations 1
DICPCG:  Solving for p, Initial residual = 1.43901e-05, Final residual = 9.93534e-07, No Iterations 463
time step continuity errors : sum local = 5.55203e-12, global = -8.00833e-14, cumulative = -2.08206e-09
DICPCG:  Solving for p, Initial residual = 4.39108e-06, Final residual = 7.78705e-07, No Iterations 2
time step continuity errors : sum local = 4.3462e-12, global = 4.232e-14, cumulative = -2.08202e-09
smoothSolver:  Solving for epsilon, Initial residual = 1.97896e-05, Final residual = 1.58384e-08, No Iterations 1
smoothSolver:  Solving for k, Initial residual = 0.000163165, Final residual = 1.13936e-07, No Iterations 1
ExecutionTime = 661.58 s  ClockTime = 662 s

Time = 39.575

Courant Number mean: 0.0374394 max: 0.293317
smoothSolver:  Solving for Ux, Initial residual = 0.00020384, Final residual = 8.51772e-08, No Iterations 1
smoothSolver:  Solving for Uy, Initial residual = 0.00020389, Final residual = 8.51983e-08, No Iterations 1
smoothSolver:  Solving for Uz, Initial residual = 0.00015681, Final residual = 8.31884e-08, No Iterations 1
DICPCG:  Solving for p, Initial residual = 1.49873e-05, Final residual = 9.34858e-07, No Iterations 12
time step continuity errors : sum local = 5.21775e-12, global = -9.19468e-13, cumulative = -2.08294e-09
DICPCG:  Solving for p, Initial residual = 4.38307e-06, Final residual = 9.24446e-07, No Iterations 2
time step continuity errors : sum local = 5.15964e-12, global = -7.41464e-13, cumulative = -2.08368e-09
smoothSolver:  Solving for epsilon, Initial residual = 1.97949e-05, Final residual = 1.58417e-08, No Iterations 1
smoothSolver:  Solving for k, Initial residual = 0.000163078, Final residual = 1.13872e-07, No Iterations 1
ExecutionTime = 661.75 s  ClockTime = 662 s

Time = 39.6

Courant Number mean: 0.0374392 max: 0.293317
smoothSolver:  Solving for Ux, Initial residual = 0.000203812, Final residual = 8.5129e-08, No Iterations 1
smoothSolver:  Solving for Uy, Initial residual = 0.000203865, Final residual = 8.51899e-08, No Iterations 1
smoothSolver:  Solving for Uz, Initial residual = 0.000156699, Final residual = 8.3131e-08, No Iterations 1
DICPCG:  Solving for p, Initial residual = 1.47813e-05, Final residual = 9.82216e-07, No Iterations 437
time step continuity errors : sum local = 5.48208e-12, global = -3.14771e-13, cumulative = -2.084e-09
DICPCG:  Solving for p, Initial residual = 4.37972e-06, Final residual = 7.89049e-07, No Iterations 2
time step continuity errors : sum local = 4.40778e-12, global = -1.00741e-13, cumulative = -2.0841e-09
smoothSolver:  Solving for epsilon, Initial residual = 1.98001e-05, Final residual = 1.58484e-08, No Iterations 1
smoothSolver:  Solving for k, Initial residual = 0.000162991, Final residual = 1.13838e-07, No Iterations 1
ExecutionTime = 662.44 s  ClockTime = 663 s

Time = 39.625

Courant Number mean: 0.037439 max: 0.293317
smoothSolver:  Solving for Ux, Initial residual = 0.000204625, Final residual = 8.57042e-08, No Iterations 1
smoothSolver:  Solving for Uy, Initial residual = 0.00020467, Final residual = 8.57222e-08, No Iterations 1
smoothSolver:  Solving for Uz, Initial residual = 0.000156632, Final residual = 8.30933e-08, No Iterations 1
DICPCG:  Solving for p, Initial residual = 1.52106e-05, Final residual = 9.77138e-07, No Iterations 390
time step continuity errors : sum local = 5.45849e-12, global = 4.69107e-14, cumulative = -2.08405e-09
DICPCG:  Solving for p, Initial residual = 4.4144e-06, Final residual = 7.76081e-07, No Iterations 2
time step continuity errors : sum local = 4.33294e-12, global = 2.08243e-13, cumulative = -2.08384e-09
smoothSolver:  Solving for epsilon, Initial residual = 1.98054e-05, Final residual = 1.58524e-08, No Iterations 1
smoothSolver:  Solving for k, Initial residual = 0.000162904, Final residual = 1.13798e-07, No Iterations 1
ExecutionTime = 663.06 s  ClockTime = 664 s

Time = 39.65

Courant Number mean: 0.0374388 max: 0.293317
smoothSolver:  Solving for Ux, Initial residual = 0.000203967, Final residual = 8.52019e-08, No Iterations 1
smoothSolver:  Solving for Uy, Initial residual = 0.000204001, Final residual = 8.52516e-08, No Iterations 1
smoothSolver:  Solving for Uz, Initial residual = 0.000156493, Final residual = 8.30222e-08, No Iterations 1
DICPCG:  Solving for p, Initial residual = 1.53914e-05, Final residual = 9.76855e-07, No Iterations 13
time step continuity errors : sum local = 5.45389e-12, global = 4.09178e-13, cumulative = -2.08343e-09
DICPCG:  Solving for p, Initial residual = 4.45196e-06, Final residual = 9.47143e-07, No Iterations 2
time step continuity errors : sum local = 5.28801e-12, global = 5.76027e-13, cumulative = -2.08286e-09
smoothSolver:  Solving for epsilon, Initial residual = 1.98106e-05, Final residual = 1.58573e-08, No Iterations 1
smoothSolver:  Solving for k, Initial residual = 0.000162817, Final residual = 1.13751e-07, No Iterations 1
ExecutionTime = 663.24 s  ClockTime = 664 s

Time = 39.675

Courant Number mean: 0.0374386 max: 0.293317
smoothSolver:  Solving for Ux, Initial residual = 0.000203996, Final residual = 8.51703e-08, No Iterations 1
smoothSolver:  Solving for Uy, Initial residual = 0.000204022, Final residual = 8.51783e-08, No Iterations 1
smoothSolver:  Solving for Uz, Initial residual = 0.000156381, Final residual = 8.29653e-08, No Iterations 1
DICPCG:  Solving for p, Initial residual = 1.45977e-05, Final residual = 9.84389e-07, No Iterations 27
time step continuity errors : sum local = 5.49596e-12, global = 8.39105e-13, cumulative = -2.08202e-09
DICPCG:  Solving for p, Initial residual = 4.36891e-06, Final residual = 9.10999e-07, No Iterations 2
time step continuity errors : sum local = 5.08621e-12, global = 1.0072e-12, cumulative = -2.08101e-09
smoothSolver:  Solving for epsilon, Initial residual = 1.98159e-05, Final residual = 1.58616e-08, No Iterations 1
smoothSolver:  Solving for k, Initial residual = 0.00016273, Final residual = 1.13683e-07, No Iterations 1
ExecutionTime = 663.44 s  ClockTime = 664 s

Time = 39.7

Courant Number mean: 0.0374384 max: 0.293317
smoothSolver:  Solving for Ux, Initial residual = 0.000203985, Final residual = 8.51271e-08, No Iterations 1
smoothSolver:  Solving for Uy, Initial residual = 0.000204015, Final residual = 8.51729e-08, No Iterations 1
smoothSolver:  Solving for Uz, Initial residual = 0.00015627, Final residual = 8.29079e-08, No Iterations 1
DICPCG:  Solving for p, Initial residual = 1.40046e-05, Final residual = 9.87908e-07, No Iterations 12
time step continuity errors : sum local = 5.51562e-12, global = 1.32047e-12, cumulative = -2.07969e-09
DICPCG:  Solving for p, Initial residual = 4.3936e-06, Final residual = 9.65345e-07, No Iterations 2
time step continuity errors : sum local = 5.38965e-12, global = 1.49784e-12, cumulative = -2.07819e-09
smoothSolver:  Solving for epsilon, Initial residual = 1.98212e-05, Final residual = 1.58626e-08, No Iterations 1
smoothSolver:  Solving for k, Initial residual = 0.000162643, Final residual = 1.13629e-07, No Iterations 1
ExecutionTime = 663.61 s  ClockTime = 664 s

Time = 39.725

Courant Number mean: 0.0374382 max: 0.293317
smoothSolver:  Solving for Ux, Initial residual = 0.000203981, Final residual = 8.51259e-08, No Iterations 1
smoothSolver:  Solving for Uy, Initial residual = 0.00020401, Final residual = 8.51345e-08, No Iterations 1
smoothSolver:  Solving for Uz, Initial residual = 0.000156158, Final residual = 8.28506e-08, No Iterations 1
DICPCG:  Solving for p, Initial residual = 1.43262e-05, Final residual = 9.92699e-07, No Iterations 406
time step continuity errors : sum local = 5.54238e-12, global = 1.22366e-13, cumulative = -2.07807e-09
DICPCG:  Solving for p, Initial residual = 4.37668e-06, Final residual = 7.82138e-07, No Iterations 2
time step continuity errors : sum local = 4.36276e-12, global = 2.52971e-13, cumulative = -2.07782e-09
smoothSolver:  Solving for epsilon, Initial residual = 1.98264e-05, Final residual = 1.58685e-08, No Iterations 1
smoothSolver:  Solving for k, Initial residual = 0.000162556, Final residual = 1.13589e-07, No Iterations 1
ExecutionTime = 664.27 s  ClockTime = 665 s

Time = 39.75

Courant Number mean: 0.037438 max: 0.293317
smoothSolver:  Solving for Ux, Initial residual = 0.000202972, Final residual = 8.44533e-08, No Iterations 1
smoothSolver:  Solving for Uy, Initial residual = 0.000203002, Final residual = 8.45029e-08, No Iterations 1
smoothSolver:  Solving for Uz, Initial residual = 0.000156001, Final residual = 8.27723e-08, No Iterations 1
DICPCG:  Solving for p, Initial residual = 1.44964e-05, Final residual = 9.87028e-07, No Iterations 78
time step continuity errors : sum local = 5.50565e-12, global = -5.96432e-13, cumulative = -2.07841e-09
DICPCG:  Solving for p, Initial residual = 4.38377e-06, Final residual = 8.68839e-07, No Iterations 2
time step continuity errors : sum local = 4.84645e-12, global = -4.0095e-13, cumulative = -2.07881e-09
smoothSolver:  Solving for epsilon, Initial residual = 1.98316e-05, Final residual = 1.58729e-08, No Iterations 1
smoothSolver:  Solving for k, Initial residual = 0.000162468, Final residual = 1.13531e-07, No Iterations 1
ExecutionTime = 664.53 s  ClockTime = 665 s

Time = 39.775

Courant Number mean: 0.0374378 max: 0.293317
smoothSolver:  Solving for Ux, Initial residual = 0.000202896, Final residual = 8.44358e-08, No Iterations 1
smoothSolver:  Solving for Uy, Initial residual = 0.000202934, Final residual = 8.44431e-08, No Iterations 1
smoothSolver:  Solving for Uz, Initial residual = 0.00015589, Final residual = 8.2715e-08, No Iterations 1
DICPCG:  Solving for p, Initial residual = 1.49437e-05, Final residual = 9.90419e-07, No Iterations 386
time step continuity errors : sum local = 5.52463e-12, global = 1.34209e-14, cumulative = -2.0788e-09
DICPCG:  Solving for p, Initial residual = 4.38139e-06, Final residual = 8.02555e-07, No Iterations 2
time step continuity errors : sum local = 4.48033e-12, global = 2.21848e-13, cumulative = -2.07858e-09
smoothSolver:  Solving for epsilon, Initial residual = 1.98368e-05, Final residual = 1.58782e-08, No Iterations 1
smoothSolver:  Solving for k, Initial residual = 0.000162381, Final residual = 1.13469e-07, No Iterations 1
ExecutionTime = 665.15 s  ClockTime = 666 s

Time = 39.8

Courant Number mean: 0.0374376 max: 0.293317
smoothSolver:  Solving for Ux, Initial residual = 0.000203596, Final residual = 8.48963e-08, No Iterations 1
smoothSolver:  Solving for Uy, Initial residual = 0.000203648, Final residual = 8.49494e-08, No Iterations 1
smoothSolver:  Solving for Uz, Initial residual = 0.000155818, Final residual = 8.26753e-08, No Iterations 1
DICPCG:  Solving for p, Initial residual = 1.44582e-05, Final residual = 9.62435e-07, No Iterations 456
time step continuity errors : sum local = 5.37288e-12, global = 1.50042e-13, cumulative = -2.07843e-09
DICPCG:  Solving for p, Initial residual = 4.35447e-06, Final residual = 7.6458e-07, No Iterations 2
time step continuity errors : sum local = 4.26612e-12, global = 3.03246e-13, cumulative = -2.07813e-09
smoothSolver:  Solving for epsilon, Initial residual = 1.9842e-05, Final residual = 1.58844e-08, No Iterations 1
smoothSolver:  Solving for k, Initial residual = 0.000162294, Final residual = 1.134e-07, No Iterations 1
ExecutionTime = 665.86 s  ClockTime = 667 s

Time = 39.825

Courant Number mean: 0.0374374 max: 0.293317
smoothSolver:  Solving for Ux, Initial residual = 0.000202991, Final residual = 8.44862e-08, No Iterations 1
smoothSolver:  Solving for Uy, Initial residual = 0.000203026, Final residual = 8.44856e-08, No Iterations 1
smoothSolver:  Solving for Uz, Initial residual = 0.00015568, Final residual = 8.26051e-08, No Iterations 1
DICPCG:  Solving for p, Initial residual = 1.46285e-05, Final residual = 9.78533e-07, No Iterations 9
time step continuity errors : sum local = 5.45992e-12, global = 2.08594e-13, cumulative = -2.07792e-09
DICPCG:  Solving for p, Initial residual = 4.36627e-06, Final residual = 9.54006e-07, No Iterations 2
time step continuity errors : sum local = 5.32306e-12, global = 3.87659e-13, cumulative = -2.07753e-09
smoothSolver:  Solving for epsilon, Initial residual = 1.98472e-05, Final residual = 1.58886e-08, No Iterations 1
smoothSolver:  Solving for k, Initial residual = 0.000162206, Final residual = 1.1335e-07, No Iterations 1
ExecutionTime = 666.04 s  ClockTime = 667 s

Time = 39.85

Courant Number mean: 0.0374372 max: 0.293317
smoothSolver:  Solving for Ux, Initial residual = 0.000202973, Final residual = 8.44478e-08, No Iterations 1
smoothSolver:  Solving for Uy, Initial residual = 0.000203022, Final residual = 8.4496e-08, No Iterations 1
smoothSolver:  Solving for Uz, Initial residual = 0.000155568, Final residual = 8.25475e-08, No Iterations 1
DICPCG:  Solving for p, Initial residual = 1.45873e-05, Final residual = 9.34166e-07, No Iterations 49
time step continuity errors : sum local = 5.21237e-12, global = 4.4755e-13, cumulative = -2.07708e-09
DICPCG:  Solving for p, Initial residual = 4.38016e-06, Final residual = 8.41046e-07, No Iterations 2
time step continuity errors : sum local = 4.69279e-12, global = 6.24087e-13, cumulative = -2.07646e-09
smoothSolver:  Solving for epsilon, Initial residual = 1.98523e-05, Final residual = 1.58936e-08, No Iterations 1
smoothSolver:  Solving for k, Initial residual = 0.000162118, Final residual = 1.13305e-07, No Iterations 1
ExecutionTime = 666.26 s  ClockTime = 667 s

Time = 39.875

Courant Number mean: 0.037437 max: 0.293317
smoothSolver:  Solving for Ux, Initial residual = 0.000202857, Final residual = 8.43738e-08, No Iterations 1
smoothSolver:  Solving for Uy, Initial residual = 0.000202892, Final residual = 8.43747e-08, No Iterations 1
smoothSolver:  Solving for Uz, Initial residual = 0.000155458, Final residual = 8.24901e-08, No Iterations 1
DICPCG:  Solving for p, Initial residual = 1.47729e-05, Final residual = 9.70684e-07, No Iterations 330
time step continuity errors : sum local = 5.41614e-12, global = 3.33328e-13, cumulative = -2.07612e-09
DICPCG:  Solving for p, Initial residual = 4.35898e-06, Final residual = 7.67474e-07, No Iterations 2
time step continuity errors : sum local = 4.28002e-12, global = 4.88893e-13, cumulative = -2.07564e-09
smoothSolver:  Solving for epsilon, Initial residual = 1.98574e-05, Final residual = 1.5897e-08, No Iterations 1
smoothSolver:  Solving for k, Initial residual = 0.00016203, Final residual = 1.13237e-07, No Iterations 1
ExecutionTime = 666.83 s  ClockTime = 667 s

Time = 39.9

Courant Number mean: 0.0374368 max: 0.293317
smoothSolver:  Solving for Ux, Initial residual = 0.000202324, Final residual = 8.40211e-08, No Iterations 1
smoothSolver:  Solving for Uy, Initial residual = 0.000202366, Final residual = 8.4076e-08, No Iterations 1
smoothSolver:  Solving for Uz, Initial residual = 0.000155323, Final residual = 8.24222e-08, No Iterations 1
DICPCG:  Solving for p, Initial residual = 1.4795e-05, Final residual = 9.74479e-07, No Iterations 37
time step continuity errors : sum local = 5.43444e-12, global = 3.21033e-13, cumulative = -2.07531e-09
DICPCG:  Solving for p, Initial residual = 4.37725e-06, Final residual = 9.05895e-07, No Iterations 2
time step continuity errors : sum local = 5.05196e-12, global = 4.64111e-13, cumulative = -2.07485e-09
smoothSolver:  Solving for epsilon, Initial residual = 1.98626e-05, Final residual = 1.59023e-08, No Iterations 1
smoothSolver:  Solving for k, Initial residual = 0.000161942, Final residual = 1.1318e-07, No Iterations 1
ExecutionTime = 667.03 s  ClockTime = 668 s

Time = 39.925

Courant Number mean: 0.0374366 max: 0.293317
smoothSolver:  Solving for Ux, Initial residual = 0.000202263, Final residual = 8.39987e-08, No Iterations 1
smoothSolver:  Solving for Uy, Initial residual = 0.000202311, Final residual = 8.40108e-08, No Iterations 1
smoothSolver:  Solving for Uz, Initial residual = 0.000155213, Final residual = 8.23658e-08, No Iterations 1
DICPCG:  Solving for p, Initial residual = 1.42435e-05, Final residual = 9.94403e-07, No Iterations 103
time step continuity errors : sum local = 5.54555e-12, global = -6.55527e-13, cumulative = -2.07551e-09
DICPCG:  Solving for p, Initial residual = 4.35843e-06, Final residual = 8.75903e-07, No Iterations 2
time step continuity errors : sum local = 4.8847e-12, global = -5.03899e-13, cumulative = -2.07601e-09
smoothSolver:  Solving for epsilon, Initial residual = 1.98678e-05, Final residual = 1.59085e-08, No Iterations 1
smoothSolver:  Solving for k, Initial residual = 0.000161854, Final residual = 1.13119e-07, No Iterations 1
ExecutionTime = 667.32 s  ClockTime = 668 s

Time = 39.95

Courant Number mean: 0.0374363 max: 0.293317
smoothSolver:  Solving for Ux, Initial residual = 0.000202277, Final residual = 8.39936e-08, No Iterations 1
smoothSolver:  Solving for Uy, Initial residual = 0.000202312, Final residual = 8.40524e-08, No Iterations 1
smoothSolver:  Solving for Uz, Initial residual = 0.000155104, Final residual = 8.23095e-08, No Iterations 1
DICPCG:  Solving for p, Initial residual = 1.43759e-05, Final residual = 9.60824e-07, No Iterations 60
time step continuity errors : sum local = 5.35829e-12, global = -4.39252e-13, cumulative = -2.07645e-09
DICPCG:  Solving for p, Initial residual = 4.34429e-06, Final residual = 8.89446e-07, No Iterations 2
time step continuity errors : sum local = 4.96027e-12, global = -2.60278e-13, cumulative = -2.07671e-09
smoothSolver:  Solving for epsilon, Initial residual = 1.9873e-05, Final residual = 1.59152e-08, No Iterations 1
smoothSolver:  Solving for k, Initial residual = 0.000161766, Final residual = 1.13051e-07, No Iterations 1
ExecutionTime = 667.56 s  ClockTime = 668 s

Time = 39.975

Courant Number mean: 0.0374361 max: 0.293317
smoothSolver:  Solving for Ux, Initial residual = 0.000202205, Final residual = 8.39629e-08, No Iterations 1
smoothSolver:  Solving for Uy, Initial residual = 0.000202232, Final residual = 8.39553e-08, No Iterations 1
smoothSolver:  Solving for Uz, Initial residual = 0.000154996, Final residual = 8.22519e-08, No Iterations 1
DICPCG:  Solving for p, Initial residual = 1.38405e-05, Final residual = 9.0229e-07, No Iterations 40
time step continuity errors : sum local = 5.03191e-12, global = -5.73901e-13, cumulative = -2.07728e-09
DICPCG:  Solving for p, Initial residual = 4.28065e-06, Final residual = 8.94367e-07, No Iterations 2
time step continuity errors : sum local = 4.98773e-12, global = -4.16878e-13, cumulative = -2.0777e-09
smoothSolver:  Solving for epsilon, Initial residual = 1.98782e-05, Final residual = 1.59248e-08, No Iterations 1
smoothSolver:  Solving for k, Initial residual = 0.000161677, Final residual = 1.13012e-07, No Iterations 1
ExecutionTime = 667.77 s  ClockTime = 668 s

Time = 40

Courant Number mean: 0.0374359 max: 0.293317
smoothSolver:  Solving for Ux, Initial residual = 0.000202193, Final residual = 8.39998e-08, No Iterations 1
smoothSolver:  Solving for Uy, Initial residual = 0.000202228, Final residual = 8.40396e-08, No Iterations 1
smoothSolver:  Solving for Uz, Initial residual = 0.000154887, Final residual = 8.21971e-08, No Iterations 1
DICPCG:  Solving for p, Initial residual = 1.44709e-05, Final residual = 9.9267e-07, No Iterations 121
time step continuity errors : sum local = 5.53595e-12, global = -4.52974e-14, cumulative = -2.07774e-09
DICPCG:  Solving for p, Initial residual = 4.355e-06, Final residual = 8.47373e-07, No Iterations 2
time step continuity errors : sum local = 4.72571e-12, global = 1.49622e-13, cumulative = -2.0776e-09
smoothSolver:  Solving for epsilon, Initial residual = 1.98834e-05, Final residual = 1.59291e-08, No Iterations 1
smoothSolver:  Solving for k, Initial residual = 0.000161588, Final residual = 1.12948e-07, No Iterations 1
ExecutionTime = 668.22 s  ClockTime = 669 s

End

Finalising parallel run
