/*---------------------------------------------------------------------------*\
| =========                 |                                                 |
| \\      /  F ield         | OpenFOAM: The Open Source CFD Toolbox           |
|  \\    /   O peration     | Version:  2206                                  |
|   \\  /    A nd           | Website:  www.openfoam.com                      |
|    \\/     M anipulation  |                                                 |
\*---------------------------------------------------------------------------*/
Build  : _76d719d1-20220624 OPENFOAM=2206 version=2206
Arch   : "LSB;label=32;scalar=64"
Exec   : pisoFoam
Date   : Nov 10 2023
Time   : 08:21:46
Host   : MSI
PID    : 1304
I/O    : uncollated
Case   : /home/baqer/Git-hub-OpenFoam/snappy-pipe-2/pipe-flow-2/PisoFoam-turbulant
nProcs : 1
trapFpe: Floating point exception trapping enabled (FOAM_SIGFPE).
fileModificationChecking : Monitoring run-time modified files using timeStampMaster (fileModificationSkew 5, maxFileModificationPolls 20)
allowSystemOperations : Allowing user-supplied system call operations

// * * * * * * * * * * * * * * * * * * * * * * * * * * * * * * * * * * * * * //
Create time

Create mesh for time = 0


PISO: Operating solver in PISO mode

Reading field p

Reading field U

Reading/calculating face flux field phi

Selecting incompressible transport model Newtonian
Selecting turbulence model type RAS
Selecting RAS turbulence model kEpsilon
RAS
{
    RASModel        kEpsilon;
    turbulence      on;
    printCoeffs     on;
    Cmu             0.09;
    C1              1.44;
    C2              1.92;
    C3              0;
    sigmak          1;
    sigmaEps        1.3;
}

No MRF models present

No finite volume options present

Starting time loop

Time = 0.025

Courant Number mean: 0.0377384 max: 0.306184
smoothSolver:  Solving for Ux, Initial residual = 1, Final residual = 8.87717e-07, No Iterations 3
smoothSolver:  Solving for Uy, Initial residual = 1, Final residual = 8.8772e-07, No Iterations 3
smoothSolver:  Solving for Uz, Initial residual = 1, Final residual = 1.51848e-06, No Iterations 2
DICPCG:  Solving for p, Initial residual = 1, Final residual = 0.0495072, No Iterations 440
time step continuity errors : sum local = 5.39999e-08, global = -1.76112e-10, cumulative = -1.76112e-10
DICPCG:  Solving for p, Initial residual = 0.000277289, Final residual = 8.84793e-07, No Iterations 447
time step continuity errors : sum local = 4.09301e-10, global = 2.26961e-12, cumulative = -1.73843e-10
smoothSolver:  Solving for epsilon, Initial residual = 0.000838589, Final residual = 1.06935e-06, No Iterations 1
smoothSolver:  Solving for k, Initial residual = 1, Final residual = 2.27182e-06, No Iterations 2
ExecutionTime = 4.83 s  ClockTime = 5 s

Time = 0.05

Courant Number mean: 0.0378272 max: 0.300015
smoothSolver:  Solving for Ux, Initial residual = 0.330538, Final residual = 8.29971e-07, No Iterations 2
smoothSolver:  Solving for Uy, Initial residual = 0.330535, Final residual = 8.29838e-07, No Iterations 2
smoothSolver:  Solving for Uz, Initial residual = 0.759997, Final residual = 2.14018e-07, No Iterations 2
DICPCG:  Solving for p, Initial residual = 0.00463401, Final residual = 0.00021721, No Iterations 440
time step continuity errors : sum local = 1.02606e-07, global = -9.97718e-10, cumulative = -1.17156e-09
DICPCG:  Solving for p, Initial residual = 0.0354442, Final residual = 9.96311e-07, No Iterations 472
time step continuity errors : sum local = 4.62825e-12, global = -4.71899e-14, cumulative = -1.17161e-09
smoothSolver:  Solving for epsilon, Initial residual = 0.000380719, Final residual = 2.78774e-07, No Iterations 1
smoothSolver:  Solving for k, Initial residual = 0.186519, Final residual = 9.85605e-08, No Iterations 2
ExecutionTime = 9.05 s  ClockTime = 9 s

Time = 0.075

Courant Number mean: 0.037827 max: 0.299477
smoothSolver:  Solving for Ux, Initial residual = 0.0253578, Final residual = 2.72909e-07, No Iterations 2
smoothSolver:  Solving for Uy, Initial residual = 0.0253894, Final residual = 2.72881e-07, No Iterations 2
smoothSolver:  Solving for Uz, Initial residual = 0.0484295, Final residual = 4.39225e-08, No Iterations 2
DICPCG:  Solving for p, Initial residual = 0.0746577, Final residual = 0.00157756, No Iterations 2
time step continuity errors : sum local = 1.17026e-08, global = -4.05766e-11, cumulative = -1.21218e-09
DICPCG:  Solving for p, Initial residual = 0.00200101, Final residual = 9.31968e-07, No Iterations 457
time step continuity errors : sum local = 6.41388e-12, global = 1.31069e-13, cumulative = -1.21205e-09
smoothSolver:  Solving for epsilon, Initial residual = 0.000367616, Final residual = 2.52517e-07, No Iterations 1
smoothSolver:  Solving for k, Initial residual = 0.10314, Final residual = 5.29502e-08, No Iterations 2
ExecutionTime = 11.53 s  ClockTime = 12 s

Time = 0.1

Courant Number mean: 0.0378267 max: 0.299231
smoothSolver:  Solving for Ux, Initial residual = 0.0138038, Final residual = 2.25039e-07, No Iterations 2
smoothSolver:  Solving for Uy, Initial residual = 0.0138011, Final residual = 2.25022e-07, No Iterations 2
smoothSolver:  Solving for Uz, Initial residual = 0.0412533, Final residual = 3.44965e-08, No Iterations 2
DICPCG:  Solving for p, Initial residual = 0.0263881, Final residual = 0.000481979, No Iterations 2
time step continuity errors : sum local = 3.13971e-09, global = -4.55905e-11, cumulative = -1.25764e-09
DICPCG:  Solving for p, Initial residual = 0.000593538, Final residual = 9.81746e-07, No Iterations 453
time step continuity errors : sum local = 6.23631e-12, global = -4.8524e-14, cumulative = -1.25769e-09
smoothSolver:  Solving for epsilon, Initial residual = 0.00035624, Final residual = 2.42914e-07, No Iterations 1
smoothSolver:  Solving for k, Initial residual = 0.0713698, Final residual = 3.41695e-08, No Iterations 2
ExecutionTime = 13.44 s  ClockTime = 14 s

Time = 0.125

Courant Number mean: 0.0378264 max: 0.299003
smoothSolver:  Solving for Ux, Initial residual = 0.0106917, Final residual = 1.99133e-07, No Iterations 2
smoothSolver:  Solving for Uy, Initial residual = 0.0106907, Final residual = 1.99112e-07, No Iterations 2
smoothSolver:  Solving for Uz, Initial residual = 0.0359037, Final residual = 2.8933e-08, No Iterations 2
DICPCG:  Solving for p, Initial residual = 0.0169927, Final residual = 0.000300567, No Iterations 2
time step continuity errors : sum local = 1.8419e-09, global = -5.00725e-11, cumulative = -1.30776e-09
DICPCG:  Solving for p, Initial residual = 0.000369937, Final residual = 9.3657e-07, No Iterations 452
time step continuity errors : sum local = 5.6517e-12, global = 3.5405e-14, cumulative = -1.30773e-09
smoothSolver:  Solving for epsilon, Initial residual = 0.000346107, Final residual = 2.37627e-07, No Iterations 1
smoothSolver:  Solving for k, Initial residual = 0.0546103, Final residual = 2.56057e-08, No Iterations 2
ExecutionTime = 15.29 s  ClockTime = 16 s

Time = 0.15

Courant Number mean: 0.0378261 max: 0.298765
smoothSolver:  Solving for Ux, Initial residual = 0.0088448, Final residual = 1.79143e-07, No Iterations 2
smoothSolver:  Solving for Uy, Initial residual = 0.00884681, Final residual = 1.79135e-07, No Iterations 2
smoothSolver:  Solving for Uz, Initial residual = 0.031768, Final residual = 9.18354e-06, No Iterations 1
DICPCG:  Solving for p, Initial residual = 0.0119541, Final residual = 0.000248432, No Iterations 2
time step continuity errors : sum local = 1.46503e-09, global = -6.95867e-11, cumulative = -1.37732e-09
DICPCG:  Solving for p, Initial residual = 0.000299796, Final residual = 8.13637e-07, No Iterations 453
time step continuity errors : sum local = 4.74736e-12, global = 1.7351e-14, cumulative = -1.3773e-09
smoothSolver:  Solving for epsilon, Initial residual = 0.000336935, Final residual = 2.32802e-07, No Iterations 1
smoothSolver:  Solving for k, Initial residual = 0.0442556, Final residual = 2.0284e-08, No Iterations 2
ExecutionTime = 17.14 s  ClockTime = 17 s

Time = 0.175

Courant Number mean: 0.0378258 max: 0.298496
smoothSolver:  Solving for Ux, Initial residual = 0.00760482, Final residual = 1.64682e-07, No Iterations 2
smoothSolver:  Solving for Uy, Initial residual = 0.00760735, Final residual = 1.64678e-07, No Iterations 2
smoothSolver:  Solving for Uz, Initial residual = 0.0284619, Final residual = 8.19669e-06, No Iterations 1
DICPCG:  Solving for p, Initial residual = 0.00893441, Final residual = 0.000206129, No Iterations 2
time step continuity errors : sum local = 1.1837e-09, global = -7.03193e-11, cumulative = -1.44762e-09
DICPCG:  Solving for p, Initial residual = 0.000246847, Final residual = 9.2456e-07, No Iterations 438
time step continuity errors : sum local = 5.26768e-12, global = -6.03011e-14, cumulative = -1.44768e-09
smoothSolver:  Solving for epsilon, Initial residual = 0.000328483, Final residual = 2.25099e-07, No Iterations 1
smoothSolver:  Solving for k, Initial residual = 0.0372229, Final residual = 1.68226e-08, No Iterations 2
ExecutionTime = 18.92 s  ClockTime = 19 s

Time = 0.2

Courant Number mean: 0.0378255 max: 0.298282
smoothSolver:  Solving for Ux, Initial residual = 0.00682702, Final residual = 1.55484e-07, No Iterations 2
smoothSolver:  Solving for Uy, Initial residual = 0.00683078, Final residual = 1.55499e-07, No Iterations 2
smoothSolver:  Solving for Uz, Initial residual = 0.0257669, Final residual = 7.39288e-06, No Iterations 1
DICPCG:  Solving for p, Initial residual = 0.00699089, Final residual = 0.000186436, No Iterations 2
time step continuity errors : sum local = 1.05006e-09, global = -7.08252e-11, cumulative = -1.5185e-09
DICPCG:  Solving for p, Initial residual = 0.000219655, Final residual = 8.09767e-07, No Iterations 453
time step continuity errors : sum local = 4.53322e-12, global = 3.09185e-14, cumulative = -1.51847e-09
smoothSolver:  Solving for epsilon, Initial residual = 0.000320641, Final residual = 2.16796e-07, No Iterations 1
smoothSolver:  Solving for k, Initial residual = 0.0321349, Final residual = 1.40611e-08, No Iterations 2
ExecutionTime = 20.77 s  ClockTime = 21 s

Time = 0.225

Courant Number mean: 0.0378253 max: 0.298211
smoothSolver:  Solving for Ux, Initial residual = 0.006232, Final residual = 1.50203e-07, No Iterations 2
smoothSolver:  Solving for Uy, Initial residual = 0.0062337, Final residual = 1.50215e-07, No Iterations 2
smoothSolver:  Solving for Uz, Initial residual = 0.0235431, Final residual = 6.74456e-06, No Iterations 1
DICPCG:  Solving for p, Initial residual = 0.00569199, Final residual = 0.000169318, No Iterations 2
time step continuity errors : sum local = 9.39769e-10, global = -7.20919e-11, cumulative = -1.59056e-09
DICPCG:  Solving for p, Initial residual = 0.000199052, Final residual = 8.75582e-07, No Iterations 437
time step continuity errors : sum local = 4.83632e-12, global = -9.11941e-14, cumulative = -1.59066e-09
smoothSolver:  Solving for epsilon, Initial residual = 0.000313338, Final residual = 2.11425e-07, No Iterations 1
smoothSolver:  Solving for k, Initial residual = 0.0282828, Final residual = 1.19576e-08, No Iterations 2
ExecutionTime = 22.56 s  ClockTime = 23 s

Time = 0.25

Courant Number mean: 0.037825 max: 0.298121
smoothSolver:  Solving for Ux, Initial residual = 0.00575559, Final residual = 1.46882e-07, No Iterations 2
smoothSolver:  Solving for Uy, Initial residual = 0.00575781, Final residual = 1.46908e-07, No Iterations 2
smoothSolver:  Solving for Uz, Initial residual = 0.0216764, Final residual = 6.20272e-06, No Iterations 1
DICPCG:  Solving for p, Initial residual = 0.00473617, Final residual = 0.000150485, No Iterations 2
time step continuity errors : sum local = 8.2583e-10, global = -7.15579e-11, cumulative = -1.66221e-09
DICPCG:  Solving for p, Initial residual = 0.000177204, Final residual = 7.95368e-07, No Iterations 453
time step continuity errors : sum local = 4.34778e-12, global = 3.29968e-14, cumulative = -1.66218e-09
smoothSolver:  Solving for epsilon, Initial residual = 0.00030649, Final residual = 2.06411e-07, No Iterations 1
smoothSolver:  Solving for k, Initial residual = 0.025265, Final residual = 1.0294e-08, No Iterations 2
ExecutionTime = 24.38 s  ClockTime = 25 s

Time = 0.275

Courant Number mean: 0.0378247 max: 0.298006
smoothSolver:  Solving for Ux, Initial residual = 0.00536478, Final residual = 1.44132e-07, No Iterations 2
smoothSolver:  Solving for Uy, Initial residual = 0.00536809, Final residual = 1.44169e-07, No Iterations 2
smoothSolver:  Solving for Uz, Initial residual = 0.0200796, Final residual = 5.74451e-06, No Iterations 1
DICPCG:  Solving for p, Initial residual = 0.0040375, Final residual = 0.000138159, No Iterations 2
time step continuity errors : sum local = 7.51483e-10, global = -6.95022e-11, cumulative = -1.73168e-09
DICPCG:  Solving for p, Initial residual = 0.000163144, Final residual = 8.90788e-07, No Iterations 433
time step continuity errors : sum local = 4.82965e-12, global = -8.36801e-14, cumulative = -1.73177e-09
smoothSolver:  Solving for epsilon, Initial residual = 0.000300035, Final residual = 2.01516e-07, No Iterations 1
smoothSolver:  Solving for k, Initial residual = 0.022837, Final residual = 9.26702e-09, No Iterations 2
ExecutionTime = 26.15 s  ClockTime = 26 s

Time = 0.3

Courant Number mean: 0.0378245 max: 0.297864
smoothSolver:  Solving for Ux, Initial residual = 0.00505217, Final residual = 1.42251e-07, No Iterations 2
smoothSolver:  Solving for Uy, Initial residual = 0.005057, Final residual = 1.42286e-07, No Iterations 2
smoothSolver:  Solving for Uz, Initial residual = 0.0187012, Final residual = 5.35241e-06, No Iterations 1
DICPCG:  Solving for p, Initial residual = 0.00347948, Final residual = 0.00012542, No Iterations 2
time step continuity errors : sum local = 6.77436e-10, global = -6.92743e-11, cumulative = -1.80104e-09
DICPCG:  Solving for p, Initial residual = 0.000148292, Final residual = 7.81084e-07, No Iterations 453
time step continuity errors : sum local = 4.20772e-12, global = 3.25597e-14, cumulative = -1.80101e-09
smoothSolver:  Solving for epsilon, Initial residual = 0.000293932, Final residual = 1.96624e-07, No Iterations 1
smoothSolver:  Solving for k, Initial residual = 0.0208412, Final residual = 9.87241e-06, No Iterations 1
ExecutionTime = 28 s  ClockTime = 28 s

Time = 0.325

Courant Number mean: 0.0378242 max: 0.297693
smoothSolver:  Solving for Ux, Initial residual = 0.00482564, Final residual = 1.40471e-07, No Iterations 2
smoothSolver:  Solving for Uy, Initial residual = 0.00482895, Final residual = 1.40495e-07, No Iterations 2
smoothSolver:  Solving for Uz, Initial residual = 0.0174956, Final residual = 5.01075e-06, No Iterations 1
DICPCG:  Solving for p, Initial residual = 0.00303045, Final residual = 0.00011259, No Iterations 2
time step continuity errors : sum local = 6.04793e-10, global = -6.56937e-11, cumulative = -1.8667e-09
DICPCG:  Solving for p, Initial residual = 0.000133809, Final residual = 9.9657e-07, No Iterations 426
time step continuity errors : sum local = 5.34128e-12, global = -1.94617e-14, cumulative = -1.86672e-09
smoothSolver:  Solving for epsilon, Initial residual = 0.000288183, Final residual = 1.92154e-07, No Iterations 1
smoothSolver:  Solving for k, Initial residual = 0.0191715, Final residual = 8.83249e-06, No Iterations 1
ExecutionTime = 30.17 s  ClockTime = 30 s

Time = 0.35

Courant Number mean: 0.0378239 max: 0.297493
smoothSolver:  Solving for Ux, Initial residual = 0.00464161, Final residual = 1.38031e-07, No Iterations 2
smoothSolver:  Solving for Uy, Initial residual = 0.00464356, Final residual = 1.38052e-07, No Iterations 2
smoothSolver:  Solving for Uz, Initial residual = 0.0164296, Final residual = 4.70785e-06, No Iterations 1
DICPCG:  Solving for p, Initial residual = 0.00267665, Final residual = 0.000103365, No Iterations 2
time step continuity errors : sum local = 5.52788e-10, global = -6.26352e-11, cumulative = -1.92936e-09
DICPCG:  Solving for p, Initial residual = 0.000122823, Final residual = 9.53069e-07, No Iterations 427
time step continuity errors : sum local = 5.08711e-12, global = -8.0201e-14, cumulative = -1.92944e-09
smoothSolver:  Solving for epsilon, Initial residual = 0.000282537, Final residual = 1.85996e-07, No Iterations 1
smoothSolver:  Solving for k, Initial residual = 0.0177539, Final residual = 7.44904e-06, No Iterations 1
ExecutionTime = 32.32 s  ClockTime = 33 s

Time = 0.375

Courant Number mean: 0.0378237 max: 0.297265
smoothSolver:  Solving for Ux, Initial residual = 0.00448915, Final residual = 1.34891e-07, No Iterations 2
smoothSolver:  Solving for Uy, Initial residual = 0.00449058, Final residual = 1.34908e-07, No Iterations 2
smoothSolver:  Solving for Uz, Initial residual = 0.0154866, Final residual = 4.43705e-06, No Iterations 1
DICPCG:  Solving for p, Initial residual = 0.00239881, Final residual = 9.19666e-05, No Iterations 2
time step continuity errors : sum local = 4.90076e-10, global = -5.85374e-11, cumulative = -1.98797e-09
DICPCG:  Solving for p, Initial residual = 0.000110856, Final residual = 9.81322e-07, No Iterations 420
time step continuity errors : sum local = 5.22057e-12, global = 2.83752e-13, cumulative = -1.98769e-09
smoothSolver:  Solving for epsilon, Initial residual = 0.000277306, Final residual = 1.8263e-07, No Iterations 1
smoothSolver:  Solving for k, Initial residual = 0.0165353, Final residual = 7.23038e-06, No Iterations 1
ExecutionTime = 34.08 s  ClockTime = 34 s

Time = 0.4

Courant Number mean: 0.0378234 max: 0.297012
smoothSolver:  Solving for Ux, Initial residual = 0.00436219, Final residual = 1.31691e-07, No Iterations 2
smoothSolver:  Solving for Uy, Initial residual = 0.00436324, Final residual = 1.31695e-07, No Iterations 2
smoothSolver:  Solving for Uz, Initial residual = 0.014644, Final residual = 4.19213e-06, No Iterations 1
DICPCG:  Solving for p, Initial residual = 0.00216014, Final residual = 8.3811e-05, No Iterations 2
time step continuity errors : sum local = 4.45345e-10, global = -5.27023e-11, cumulative = -2.04039e-09
DICPCG:  Solving for p, Initial residual = 0.000101859, Final residual = 9.84051e-07, No Iterations 143
time step continuity errors : sum local = 5.22131e-12, global = 4.03305e-13, cumulative = -2.03999e-09
smoothSolver:  Solving for epsilon, Initial residual = 0.000272189, Final residual = 1.77847e-07, No Iterations 1
smoothSolver:  Solving for k, Initial residual = 0.0154767, Final residual = 6.8965e-06, No Iterations 1
ExecutionTime = 34.87 s  ClockTime = 35 s

Time = 0.425

Courant Number mean: 0.0378232 max: 0.296738
smoothSolver:  Solving for Ux, Initial residual = 0.00424172, Final residual = 9.97582e-06, No Iterations 1
smoothSolver:  Solving for Uy, Initial residual = 0.00424292, Final residual = 9.97704e-06, No Iterations 1
smoothSolver:  Solving for Uz, Initial residual = 0.0138876, Final residual = 3.97118e-06, No Iterations 1
DICPCG:  Solving for p, Initial residual = 0.00197565, Final residual = 7.61722e-05, No Iterations 2
time step continuity errors : sum local = 4.03882e-10, global = -4.90313e-11, cumulative = -2.08902e-09
DICPCG:  Solving for p, Initial residual = 9.69739e-05, Final residual = 9.74581e-07, No Iterations 415
time step continuity errors : sum local = 5.16081e-12, global = 4.42043e-14, cumulative = -2.08898e-09
smoothSolver:  Solving for epsilon, Initial residual = 0.000267505, Final residual = 1.72678e-07, No Iterations 1
smoothSolver:  Solving for k, Initial residual = 0.0145483, Final residual = 6.30359e-06, No Iterations 1
ExecutionTime = 36.57 s  ClockTime = 37 s

Time = 0.45

Courant Number mean: 0.0378229 max: 0.296448
smoothSolver:  Solving for Ux, Initial residual = 0.00412919, Final residual = 9.73885e-06, No Iterations 1
smoothSolver:  Solving for Uy, Initial residual = 0.00412996, Final residual = 9.73992e-06, No Iterations 1
smoothSolver:  Solving for Uz, Initial residual = 0.0132029, Final residual = 3.77033e-06, No Iterations 1
DICPCG:  Solving for p, Initial residual = 0.00179243, Final residual = 6.94946e-05, No Iterations 2
time step continuity errors : sum local = 3.67657e-10, global = -4.83309e-11, cumulative = -2.13731e-09
DICPCG:  Solving for p, Initial residual = 8.98909e-05, Final residual = 9.78523e-07, No Iterations 87
time step continuity errors : sum local = 5.17098e-12, global = -6.60738e-13, cumulative = -2.13797e-09
smoothSolver:  Solving for epsilon, Initial residual = 0.000262915, Final residual = 1.69486e-07, No Iterations 1
smoothSolver:  Solving for k, Initial residual = 0.0137273, Final residual = 5.93055e-06, No Iterations 1
ExecutionTime = 37.16 s  ClockTime = 37 s

Time = 0.475

Courant Number mean: 0.0378227 max: 0.296146
smoothSolver:  Solving for Ux, Initial residual = 0.00404053, Final residual = 9.51358e-06, No Iterations 1
smoothSolver:  Solving for Uy, Initial residual = 0.00404119, Final residual = 9.51508e-06, No Iterations 1
smoothSolver:  Solving for Uz, Initial residual = 0.0125842, Final residual = 3.58726e-06, No Iterations 1
DICPCG:  Solving for p, Initial residual = 0.00163722, Final residual = 6.32976e-05, No Iterations 2
time step continuity errors : sum local = 3.34347e-10, global = -4.59858e-11, cumulative = -2.18395e-09
DICPCG:  Solving for p, Initial residual = 8.26665e-05, Final residual = 9.95121e-07, No Iterations 422
time step continuity errors : sum local = 5.25107e-12, global = 1.34114e-13, cumulative = -2.18382e-09
smoothSolver:  Solving for epsilon, Initial residual = 0.000258548, Final residual = 1.65933e-07, No Iterations 1
smoothSolver:  Solving for k, Initial residual = 0.0129962, Final residual = 5.64769e-06, No Iterations 1
ExecutionTime = 38.91 s  ClockTime = 39 s

Time = 0.5

Courant Number mean: 0.0378224 max: 0.295839
smoothSolver:  Solving for Ux, Initial residual = 0.00397474, Final residual = 9.27697e-06, No Iterations 1
smoothSolver:  Solving for Uy, Initial residual = 0.00397519, Final residual = 9.27847e-06, No Iterations 1
smoothSolver:  Solving for Uz, Initial residual = 0.0120254, Final residual = 3.42084e-06, No Iterations 1
DICPCG:  Solving for p, Initial residual = 0.00151271, Final residual = 5.8871e-05, No Iterations 2
time step continuity errors : sum local = 3.10862e-10, global = -4.0478e-11, cumulative = -2.2243e-09
DICPCG:  Solving for p, Initial residual = 7.75888e-05, Final residual = 9.98254e-07, No Iterations 65
time step continuity errors : sum local = 5.26657e-12, global = -2.56319e-13, cumulative = -2.22455e-09
smoothSolver:  Solving for epsilon, Initial residual = 0.000254322, Final residual = 1.62943e-07, No Iterations 1
smoothSolver:  Solving for k, Initial residual = 0.0123409, Final residual = 5.44363e-06, No Iterations 1
ExecutionTime = 39.96 s  ClockTime = 40 s

Time = 0.525

Courant Number mean: 0.0378222 max: 0.295531
smoothSolver:  Solving for Ux, Initial residual = 0.00391216, Final residual = 9.01378e-06, No Iterations 1
smoothSolver:  Solving for Uy, Initial residual = 0.0039124, Final residual = 9.01527e-06, No Iterations 1
smoothSolver:  Solving for Uz, Initial residual = 0.0115098, Final residual = 3.26756e-06, No Iterations 1
DICPCG:  Solving for p, Initial residual = 0.00141455, Final residual = 5.49484e-05, No Iterations 2
time step continuity errors : sum local = 2.8982e-10, global = -3.7875e-11, cumulative = -2.26243e-09
DICPCG:  Solving for p, Initial residual = 7.34568e-05, Final residual = 9.88323e-07, No Iterations 418
time step continuity errors : sum local = 5.20871e-12, global = 2.52795e-14, cumulative = -2.2624e-09
smoothSolver:  Solving for epsilon, Initial residual = 0.000250249, Final residual = 1.61563e-07, No Iterations 1
smoothSolver:  Solving for k, Initial residual = 0.0117502, Final residual = 5.2198e-06, No Iterations 1
ExecutionTime = 41.68 s  ClockTime = 42 s

Time = 0.55

Courant Number mean: 0.0378219 max: 0.295227
smoothSolver:  Solving for Ux, Initial residual = 0.00384939, Final residual = 8.7558e-06, No Iterations 1
smoothSolver:  Solving for Uy, Initial residual = 0.00384952, Final residual = 8.75676e-06, No Iterations 1
smoothSolver:  Solving for Uz, Initial residual = 0.011039, Final residual = 3.12699e-06, No Iterations 1
DICPCG:  Solving for p, Initial residual = 0.00131564, Final residual = 4.97844e-05, No Iterations 2
time step continuity errors : sum local = 2.62464e-10, global = -3.30873e-11, cumulative = -2.29549e-09
DICPCG:  Solving for p, Initial residual = 6.81475e-05, Final residual = 9.96399e-07, No Iterations 393
time step continuity errors : sum local = 5.24928e-12, global = 4.61004e-14, cumulative = -2.29544e-09
smoothSolver:  Solving for epsilon, Initial residual = 0.000246446, Final residual = 1.58623e-07, No Iterations 1
smoothSolver:  Solving for k, Initial residual = 0.0112148, Final residual = 4.98836e-06, No Iterations 1
ExecutionTime = 43.34 s  ClockTime = 44 s

Time = 0.575

Courant Number mean: 0.0378217 max: 0.294932
smoothSolver:  Solving for Ux, Initial residual = 0.00379153, Final residual = 8.57464e-06, No Iterations 1
smoothSolver:  Solving for Uy, Initial residual = 0.00379154, Final residual = 8.57532e-06, No Iterations 1
smoothSolver:  Solving for Uz, Initial residual = 0.010605, Final residual = 2.99657e-06, No Iterations 1
DICPCG:  Solving for p, Initial residual = 0.00122877, Final residual = 4.58687e-05, No Iterations 2
time step continuity errors : sum local = 2.41742e-10, global = -2.96278e-11, cumulative = -2.32507e-09
DICPCG:  Solving for p, Initial residual = 6.34395e-05, Final residual = 9.64059e-07, No Iterations 403
time step continuity errors : sum local = 5.07769e-12, global = 1.07633e-13, cumulative = -2.32496e-09
smoothSolver:  Solving for epsilon, Initial residual = 0.000242753, Final residual = 1.58619e-07, No Iterations 1
smoothSolver:  Solving for k, Initial residual = 0.0107273, Final residual = 4.88441e-06, No Iterations 1
ExecutionTime = 45.05 s  ClockTime = 45 s

Time = 0.6

Courant Number mean: 0.0378214 max: 0.294651
smoothSolver:  Solving for Ux, Initial residual = 0.00373762, Final residual = 8.44403e-06, No Iterations 1
smoothSolver:  Solving for Uy, Initial residual = 0.00373773, Final residual = 8.44531e-06, No Iterations 1
smoothSolver:  Solving for Uz, Initial residual = 0.0102043, Final residual = 2.87522e-06, No Iterations 1
DICPCG:  Solving for p, Initial residual = 0.00114886, Final residual = 4.35221e-05, No Iterations 2
time step continuity errors : sum local = 2.29356e-10, global = -2.65439e-11, cumulative = -2.35151e-09
DICPCG:  Solving for p, Initial residual = 6.08733e-05, Final residual = 8.59377e-07, No Iterations 442
time step continuity errors : sum local = 4.52632e-12, global = -5.83568e-14, cumulative = -2.35157e-09
smoothSolver:  Solving for epsilon, Initial residual = 0.000239271, Final residual = 1.56592e-07, No Iterations 1
smoothSolver:  Solving for k, Initial residual = 0.0102815, Final residual = 4.73937e-06, No Iterations 1
ExecutionTime = 46.93 s  ClockTime = 47 s

Time = 0.625

Courant Number mean: 0.0378212 max: 0.294389
smoothSolver:  Solving for Ux, Initial residual = 0.00368318, Final residual = 8.30899e-06, No Iterations 1
smoothSolver:  Solving for Uy, Initial residual = 0.00368321, Final residual = 8.31117e-06, No Iterations 1
smoothSolver:  Solving for Uz, Initial residual = 0.0098331, Final residual = 2.7615e-06, No Iterations 1
DICPCG:  Solving for p, Initial residual = 0.00109197, Final residual = 4.2271e-05, No Iterations 2
time step continuity errors : sum local = 2.22786e-10, global = -2.30082e-11, cumulative = -2.37458e-09
DICPCG:  Solving for p, Initial residual = 5.91171e-05, Final residual = 9.13811e-07, No Iterations 434
time step continuity errors : sum local = 4.81383e-12, global = 2.73154e-14, cumulative = -2.37455e-09
smoothSolver:  Solving for epsilon, Initial residual = 0.000235861, Final residual = 1.54078e-07, No Iterations 1
smoothSolver:  Solving for k, Initial residual = 0.0098722, Final residual = 4.60383e-06, No Iterations 1
ExecutionTime = 48.87 s  ClockTime = 49 s

Time = 0.65

Courant Number mean: 0.0378209 max: 0.294148
smoothSolver:  Solving for Ux, Initial residual = 0.00363265, Final residual = 8.16641e-06, No Iterations 1
smoothSolver:  Solving for Uy, Initial residual = 0.00363269, Final residual = 8.16841e-06, No Iterations 1
smoothSolver:  Solving for Uz, Initial residual = 0.00948825, Final residual = 2.65707e-06, No Iterations 1
DICPCG:  Solving for p, Initial residual = 0.00102477, Final residual = 3.75308e-05, No Iterations 2
time step continuity errors : sum local = 1.9786e-10, global = -2.09693e-11, cumulative = -2.39552e-09
DICPCG:  Solving for p, Initial residual = 5.42324e-05, Final residual = 8.70754e-07, No Iterations 445
time step continuity errors : sum local = 4.58869e-12, global = -5.39396e-14, cumulative = -2.39557e-09
smoothSolver:  Solving for epsilon, Initial residual = 0.000232646, Final residual = 1.52197e-07, No Iterations 1
smoothSolver:  Solving for k, Initial residual = 0.00949519, Final residual = 4.45001e-06, No Iterations 1
ExecutionTime = 50.72 s  ClockTime = 51 s

Time = 0.675

Courant Number mean: 0.0378207 max: 0.293932
smoothSolver:  Solving for Ux, Initial residual = 0.00358607, Final residual = 7.99808e-06, No Iterations 1
smoothSolver:  Solving for Uy, Initial residual = 0.00358605, Final residual = 7.99988e-06, No Iterations 1
smoothSolver:  Solving for Uz, Initial residual = 0.00916709, Final residual = 2.56044e-06, No Iterations 1
DICPCG:  Solving for p, Initial residual = 0.000971542, Final residual = 3.58641e-05, No Iterations 2
time step continuity errors : sum local = 1.89156e-10, global = -1.78141e-11, cumulative = -2.41339e-09
DICPCG:  Solving for p, Initial residual = 5.24896e-05, Final residual = 9.82682e-07, No Iterations 442
time step continuity errors : sum local = 5.18099e-12, global = -4.99067e-14, cumulative = -2.41344e-09
smoothSolver:  Solving for epsilon, Initial residual = 0.000229569, Final residual = 1.511e-07, No Iterations 1
smoothSolver:  Solving for k, Initial residual = 0.00914679, Final residual = 4.37021e-06, No Iterations 1
ExecutionTime = 52.54 s  ClockTime = 53 s

Time = 0.7

Courant Number mean: 0.0378205 max: 0.293742
smoothSolver:  Solving for Ux, Initial residual = 0.00353758, Final residual = 7.83771e-06, No Iterations 1
smoothSolver:  Solving for Uy, Initial residual = 0.00353773, Final residual = 7.83959e-06, No Iterations 1
smoothSolver:  Solving for Uz, Initial residual = 0.00886723, Final residual = 2.47068e-06, No Iterations 1
DICPCG:  Solving for p, Initial residual = 0.000926544, Final residual = 3.28909e-05, No Iterations 2
time step continuity errors : sum local = 1.7357e-10, global = -1.53709e-11, cumulative = -2.42881e-09
DICPCG:  Solving for p, Initial residual = 4.93913e-05, Final residual = 8.592e-07, No Iterations 446
time step continuity errors : sum local = 4.53266e-12, global = -5.48242e-14, cumulative = -2.42886e-09
smoothSolver:  Solving for epsilon, Initial residual = 0.000226593, Final residual = 1.48023e-07, No Iterations 1
smoothSolver:  Solving for k, Initial residual = 0.00882381, Final residual = 4.24088e-06, No Iterations 1
ExecutionTime = 54.39 s  ClockTime = 55 s

Time = 0.725

Courant Number mean: 0.0378202 max: 0.29358
smoothSolver:  Solving for Ux, Initial residual = 0.00348767, Final residual = 7.66688e-06, No Iterations 1
smoothSolver:  Solving for Uy, Initial residual = 0.00348743, Final residual = 7.66919e-06, No Iterations 1
smoothSolver:  Solving for Uz, Initial residual = 0.00858665, Final residual = 2.38665e-06, No Iterations 1
DICPCG:  Solving for p, Initial residual = 0.000895666, Final residual = 3.00445e-05, No Iterations 2
time step continuity errors : sum local = 1.58651e-10, global = -1.23619e-11, cumulative = -2.44122e-09
DICPCG:  Solving for p, Initial residual = 4.61323e-05, Final residual = 8.83527e-07, No Iterations 443
time step continuity errors : sum local = 4.66409e-12, global = -2.06544e-14, cumulative = -2.44124e-09
smoothSolver:  Solving for epsilon, Initial residual = 0.0002237, Final residual = 1.4707e-07, No Iterations 1
smoothSolver:  Solving for k, Initial residual = 0.00852354, Final residual = 4.1367e-06, No Iterations 1
ExecutionTime = 56.21 s  ClockTime = 57 s

Time = 0.75

Courant Number mean: 0.03782 max: 0.293447
smoothSolver:  Solving for Ux, Initial residual = 0.00343824, Final residual = 7.52014e-06, No Iterations 1
smoothSolver:  Solving for Uy, Initial residual = 0.00343813, Final residual = 7.5229e-06, No Iterations 1
smoothSolver:  Solving for Uz, Initial residual = 0.00832352, Final residual = 2.30845e-06, No Iterations 1
DICPCG:  Solving for p, Initial residual = 0.000848717, Final residual = 2.77883e-05, No Iterations 2
time step continuity errors : sum local = 1.46842e-10, global = -1.03929e-11, cumulative = -2.45164e-09
DICPCG:  Solving for p, Initial residual = 4.36243e-05, Final residual = 7.60429e-07, No Iterations 446
time step continuity errors : sum local = 4.01724e-12, global = -5.54056e-14, cumulative = -2.45169e-09
smoothSolver:  Solving for epsilon, Initial residual = 0.000220892, Final residual = 1.44807e-07, No Iterations 1
smoothSolver:  Solving for k, Initial residual = 0.00824363, Final residual = 4.03168e-06, No Iterations 1
ExecutionTime = 58.05 s  ClockTime = 58 s

Time = 0.775

Courant Number mean: 0.0378197 max: 0.293341
smoothSolver:  Solving for Ux, Initial residual = 0.00339151, Final residual = 7.37251e-06, No Iterations 1
smoothSolver:  Solving for Uy, Initial residual = 0.0033915, Final residual = 7.37436e-06, No Iterations 1
smoothSolver:  Solving for Uz, Initial residual = 0.00807625, Final residual = 2.23645e-06, No Iterations 1
DICPCG:  Solving for p, Initial residual = 0.000808639, Final residual = 2.57406e-05, No Iterations 2
time step continuity errors : sum local = 1.3613e-10, global = -9.10975e-12, cumulative = -2.4608e-09
DICPCG:  Solving for p, Initial residual = 4.2728e-05, Final residual = 8.6575e-07, No Iterations 444
time step continuity errors : sum local = 4.5775e-12, global = -7.07611e-14, cumulative = -2.46087e-09
smoothSolver:  Solving for epsilon, Initial residual = 0.000218159, Final residual = 1.43452e-07, No Iterations 1
smoothSolver:  Solving for k, Initial residual = 0.00798204, Final residual = 3.93909e-06, No Iterations 1
ExecutionTime = 59.87 s  ClockTime = 60 s

Time = 0.8

Courant Number mean: 0.0378195 max: 0.293265
smoothSolver:  Solving for Ux, Initial residual = 0.00334749, Final residual = 7.21426e-06, No Iterations 1
smoothSolver:  Solving for Uy, Initial residual = 0.00334753, Final residual = 7.21685e-06, No Iterations 1
smoothSolver:  Solving for Uz, Initial residual = 0.00784346, Final residual = 2.17016e-06, No Iterations 1
DICPCG:  Solving for p, Initial residual = 0.000763268, Final residual = 2.77702e-05, No Iterations 2
time step continuity errors : sum local = 1.46991e-10, global = -7.65516e-12, cumulative = -2.46853e-09
DICPCG:  Solving for p, Initial residual = 4.31661e-05, Final residual = 9.42916e-07, No Iterations 444
time step continuity errors : sum local = 4.98986e-12, global = -3.80871e-14, cumulative = -2.46857e-09
smoothSolver:  Solving for epsilon, Initial residual = 0.00021553, Final residual = 1.41613e-07, No Iterations 1
smoothSolver:  Solving for k, Initial residual = 0.00773705, Final residual = 3.82798e-06, No Iterations 1
ExecutionTime = 61.67 s  ClockTime = 62 s

Time = 0.825

Courant Number mean: 0.0378192 max: 0.293216
smoothSolver:  Solving for Ux, Initial residual = 0.00330407, Final residual = 7.03088e-06, No Iterations 1
smoothSolver:  Solving for Uy, Initial residual = 0.00330415, Final residual = 7.03366e-06, No Iterations 1
smoothSolver:  Solving for Uz, Initial residual = 0.00762385, Final residual = 2.10808e-06, No Iterations 1
DICPCG:  Solving for p, Initial residual = 0.000741847, Final residual = 2.58938e-05, No Iterations 2
time step continuity errors : sum local = 1.37185e-10, global = -6.16393e-12, cumulative = -2.47473e-09
DICPCG:  Solving for p, Initial residual = 4.187e-05, Final residual = 8.41657e-07, No Iterations 446
time step continuity errors : sum local = 4.45822e-12, global = -6.98686e-14, cumulative = -2.4748e-09
smoothSolver:  Solving for epsilon, Initial residual = 0.000212956, Final residual = 1.41595e-07, No Iterations 1
smoothSolver:  Solving for k, Initial residual = 0.00750708, Final residual = 3.76081e-06, No Iterations 1
ExecutionTime = 64.07 s  ClockTime = 64 s

Time = 0.85

Courant Number mean: 0.037819 max: 0.293193
smoothSolver:  Solving for Ux, Initial residual = 0.00326371, Final residual = 6.84754e-06, No Iterations 1
smoothSolver:  Solving for Uy, Initial residual = 0.0032637, Final residual = 6.85025e-06, No Iterations 1
smoothSolver:  Solving for Uz, Initial residual = 0.0074164, Final residual = 2.04982e-06, No Iterations 1
DICPCG:  Solving for p, Initial residual = 0.000714815, Final residual = 2.59324e-05, No Iterations 2
time step continuity errors : sum local = 1.37525e-10, global = -5.74808e-12, cumulative = -2.48055e-09
DICPCG:  Solving for p, Initial residual = 4.13124e-05, Final residual = 7.9192e-07, No Iterations 446
time step continuity errors : sum local = 4.19904e-12, global = -7.67502e-14, cumulative = -2.48062e-09
smoothSolver:  Solving for epsilon, Initial residual = 0.000210472, Final residual = 1.39508e-07, No Iterations 1
smoothSolver:  Solving for k, Initial residual = 0.00729083, Final residual = 3.6983e-06, No Iterations 1
ExecutionTime = 66.15 s  ClockTime = 66 s

Time = 0.875

Courant Number mean: 0.0378187 max: 0.293193
smoothSolver:  Solving for Ux, Initial residual = 0.00322447, Final residual = 6.64079e-06, No Iterations 1
smoothSolver:  Solving for Uy, Initial residual = 0.00322452, Final residual = 6.64351e-06, No Iterations 1
smoothSolver:  Solving for Uz, Initial residual = 0.00722012, Final residual = 1.99498e-06, No Iterations 1
DICPCG:  Solving for p, Initial residual = 0.000692874, Final residual = 2.49423e-05, No Iterations 2
time step continuity errors : sum local = 1.32414e-10, global = -4.53184e-12, cumulative = -2.48516e-09
DICPCG:  Solving for p, Initial residual = 4.0647e-05, Final residual = 7.88598e-07, No Iterations 446
time step continuity errors : sum local = 4.186e-12, global = -7.39574e-14, cumulative = -2.48523e-09
smoothSolver:  Solving for epsilon, Initial residual = 0.000208074, Final residual = 1.37417e-07, No Iterations 1
smoothSolver:  Solving for k, Initial residual = 0.00708703, Final residual = 3.62843e-06, No Iterations 1
ExecutionTime = 67.97 s  ClockTime = 68 s

Time = 0.9

Courant Number mean: 0.0378185 max: 0.293213
smoothSolver:  Solving for Ux, Initial residual = 0.00318511, Final residual = 6.44881e-06, No Iterations 1
smoothSolver:  Solving for Uy, Initial residual = 0.00318513, Final residual = 6.45087e-06, No Iterations 1
smoothSolver:  Solving for Uz, Initial residual = 0.00703416, Final residual = 1.94307e-06, No Iterations 1
DICPCG:  Solving for p, Initial residual = 0.000661645, Final residual = 2.38161e-05, No Iterations 2
time step continuity errors : sum local = 1.26576e-10, global = -4.14064e-12, cumulative = -2.48937e-09
DICPCG:  Solving for p, Initial residual = 3.91484e-05, Final residual = 7.73397e-07, No Iterations 446
time step continuity errors : sum local = 4.10996e-12, global = -9.49231e-14, cumulative = -2.48947e-09
smoothSolver:  Solving for epsilon, Initial residual = 0.00020571, Final residual = 1.35514e-07, No Iterations 1
smoothSolver:  Solving for k, Initial residual = 0.00689462, Final residual = 3.53279e-06, No Iterations 1
ExecutionTime = 69.85 s  ClockTime = 70 s

Time = 0.925

Courant Number mean: 0.0378183 max: 0.293251
smoothSolver:  Solving for Ux, Initial residual = 0.00314732, Final residual = 6.30681e-06, No Iterations 1
smoothSolver:  Solving for Uy, Initial residual = 0.00314745, Final residual = 6.30977e-06, No Iterations 1
smoothSolver:  Solving for Uz, Initial residual = 0.00685782, Final residual = 1.89387e-06, No Iterations 1
DICPCG:  Solving for p, Initial residual = 0.000634822, Final residual = 2.27642e-05, No Iterations 2
time step continuity errors : sum local = 1.21125e-10, global = -3.71759e-12, cumulative = -2.49318e-09
DICPCG:  Solving for p, Initial residual = 3.77619e-05, Final residual = 9.42927e-07, No Iterations 445
time step continuity errors : sum local = 5.01668e-12, global = -1.32949e-13, cumulative = -2.49332e-09
smoothSolver:  Solving for epsilon, Initial residual = 0.000203428, Final residual = 1.34378e-07, No Iterations 1
smoothSolver:  Solving for k, Initial residual = 0.00671263, Final residual = 3.47741e-06, No Iterations 1
ExecutionTime = 71.69 s  ClockTime = 72 s

Time = 0.95

Courant Number mean: 0.037818 max: 0.293304
smoothSolver:  Solving for Ux, Initial residual = 0.00311049, Final residual = 6.17058e-06, No Iterations 1
smoothSolver:  Solving for Uy, Initial residual = 0.00311059, Final residual = 6.17322e-06, No Iterations 1
smoothSolver:  Solving for Uz, Initial residual = 0.00669034, Final residual = 1.84699e-06, No Iterations 1
DICPCG:  Solving for p, Initial residual = 0.000620215, Final residual = 2.29635e-05, No Iterations 2
time step continuity errors : sum local = 1.22328e-10, global = -3.71868e-12, cumulative = -2.49704e-09
DICPCG:  Solving for p, Initial residual = 3.84793e-05, Final residual = 9.12282e-07, No Iterations 445
time step continuity errors : sum local = 4.85936e-12, global = -1.27444e-13, cumulative = -2.49716e-09
smoothSolver:  Solving for epsilon, Initial residual = 0.000201191, Final residual = 1.32541e-07, No Iterations 1
smoothSolver:  Solving for k, Initial residual = 0.00654022, Final residual = 3.36865e-06, No Iterations 1
ExecutionTime = 73.57 s  ClockTime = 74 s

Time = 0.975

Courant Number mean: 0.0378178 max: 0.293368
smoothSolver:  Solving for Ux, Initial residual = 0.00307516, Final residual = 6.06927e-06, No Iterations 1
smoothSolver:  Solving for Uy, Initial residual = 0.00307523, Final residual = 6.07182e-06, No Iterations 1
smoothSolver:  Solving for Uz, Initial residual = 0.00653098, Final residual = 1.80147e-06, No Iterations 1
DICPCG:  Solving for p, Initial residual = 0.000580238, Final residual = 2.10042e-05, No Iterations 2
time step continuity errors : sum local = 1.12027e-10, global = -3.86058e-12, cumulative = -2.50102e-09
DICPCG:  Solving for p, Initial residual = 3.57405e-05, Final residual = 8.99888e-07, No Iterations 445
time step continuity errors : sum local = 4.79935e-12, global = -1.12417e-13, cumulative = -2.50114e-09
smoothSolver:  Solving for epsilon, Initial residual = 0.000199035, Final residual = 1.30354e-07, No Iterations 1
smoothSolver:  Solving for k, Initial residual = 0.00637665, Final residual = 3.30856e-06, No Iterations 1
ExecutionTime = 75.39 s  ClockTime = 76 s

Time = 1

Courant Number mean: 0.0378175 max: 0.29344
smoothSolver:  Solving for Ux, Initial residual = 0.00303935, Final residual = 5.97347e-06, No Iterations 1
smoothSolver:  Solving for Uy, Initial residual = 0.00303938, Final residual = 5.97554e-06, No Iterations 1
smoothSolver:  Solving for Uz, Initial residual = 0.00637915, Final residual = 1.75742e-06, No Iterations 1
DICPCG:  Solving for p, Initial residual = 0.000567151, Final residual = 2.03301e-05, No Iterations 2
time step continuity errors : sum local = 1.08568e-10, global = -3.00355e-12, cumulative = -2.50414e-09
DICPCG:  Solving for p, Initial residual = 3.50603e-05, Final residual = 9.55111e-07, No Iterations 445
time step continuity errors : sum local = 5.10027e-12, global = -1.6349e-13, cumulative = -2.5043e-09
smoothSolver:  Solving for epsilon, Initial residual = 0.000196918, Final residual = 1.2839e-07, No Iterations 1
smoothSolver:  Solving for k, Initial residual = 0.00622124, Final residual = 3.28319e-06, No Iterations 1
ExecutionTime = 77.73 s  ClockTime = 78 s

Time = 1.025

Courant Number mean: 0.0378173 max: 0.293517
smoothSolver:  Solving for Ux, Initial residual = 0.00300472, Final residual = 5.87124e-06, No Iterations 1
smoothSolver:  Solving for Uy, Initial residual = 0.00300477, Final residual = 5.8727e-06, No Iterations 1
smoothSolver:  Solving for Uz, Initial residual = 0.00623427, Final residual = 1.71481e-06, No Iterations 1
DICPCG:  Solving for p, Initial residual = 0.000549531, Final residual = 2.03106e-05, No Iterations 2
time step continuity errors : sum local = 1.08599e-10, global = -3.0159e-12, cumulative = -2.50732e-09
DICPCG:  Solving for p, Initial residual = 3.48309e-05, Final residual = 9.85373e-07, No Iterations 445
time step continuity errors : sum local = 5.26845e-12, global = -1.29718e-13, cumulative = -2.50745e-09
smoothSolver:  Solving for epsilon, Initial residual = 0.00019486, Final residual = 1.26297e-07, No Iterations 1
smoothSolver:  Solving for k, Initial residual = 0.00607339, Final residual = 3.15059e-06, No Iterations 1
ExecutionTime = 79.55 s  ClockTime = 80 s

Time = 1.05

Courant Number mean: 0.037817 max: 0.293597
smoothSolver:  Solving for Ux, Initial residual = 0.00297016, Final residual = 5.79142e-06, No Iterations 1
smoothSolver:  Solving for Uy, Initial residual = 0.00297026, Final residual = 5.79357e-06, No Iterations 1
smoothSolver:  Solving for Uz, Initial residual = 0.00609589, Final residual = 1.67389e-06, No Iterations 1
DICPCG:  Solving for p, Initial residual = 0.000525194, Final residual = 1.81537e-05, No Iterations 2
time step continuity errors : sum local = 9.71879e-11, global = -3.27898e-12, cumulative = -2.51073e-09
DICPCG:  Solving for p, Initial residual = 3.27691e-05, Final residual = 9.21754e-07, No Iterations 445
time step continuity errors : sum local = 4.93447e-12, global = -1.38347e-13, cumulative = -2.51087e-09
smoothSolver:  Solving for epsilon, Initial residual = 0.000192916, Final residual = 1.2459e-07, No Iterations 1
smoothSolver:  Solving for k, Initial residual = 0.00593253, Final residual = 3.09504e-06, No Iterations 1
ExecutionTime = 81.38 s  ClockTime = 82 s

Time = 1.075

Courant Number mean: 0.0378168 max: 0.293676
smoothSolver:  Solving for Ux, Initial residual = 0.0029362, Final residual = 5.71331e-06, No Iterations 1
smoothSolver:  Solving for Uy, Initial residual = 0.00293636, Final residual = 5.71568e-06, No Iterations 1
smoothSolver:  Solving for Uz, Initial residual = 0.0059636, Final residual = 1.63471e-06, No Iterations 1
DICPCG:  Solving for p, Initial residual = 0.000513353, Final residual = 1.73097e-05, No Iterations 2
time step continuity errors : sum local = 9.27854e-11, global = -4.41889e-12, cumulative = -2.51528e-09
DICPCG:  Solving for p, Initial residual = 3.21669e-05, Final residual = 9.19598e-07, No Iterations 445
time step continuity errors : sum local = 4.92912e-12, global = -1.33926e-13, cumulative = -2.51542e-09
smoothSolver:  Solving for epsilon, Initial residual = 0.000190959, Final residual = 1.21917e-07, No Iterations 1
smoothSolver:  Solving for k, Initial residual = 0.00579818, Final residual = 2.9963e-06, No Iterations 1
ExecutionTime = 83.21 s  ClockTime = 84 s

Time = 1.1

Courant Number mean: 0.0378165 max: 0.293752
smoothSolver:  Solving for Ux, Initial residual = 0.0029016, Final residual = 5.64336e-06, No Iterations 1
smoothSolver:  Solving for Uy, Initial residual = 0.0029017, Final residual = 5.64506e-06, No Iterations 1
smoothSolver:  Solving for Uz, Initial residual = 0.00583705, Final residual = 1.59692e-06, No Iterations 1
DICPCG:  Solving for p, Initial residual = 0.000495657, Final residual = 1.66438e-05, No Iterations 2
time step continuity errors : sum local = 8.93283e-11, global = -4.64642e-12, cumulative = -2.52006e-09
DICPCG:  Solving for p, Initial residual = 3.11771e-05, Final residual = 9.29548e-07, No Iterations 445
time step continuity errors : sum local = 4.98878e-12, global = -1.50846e-13, cumulative = -2.52022e-09
smoothSolver:  Solving for epsilon, Initial residual = 0.00018907, Final residual = 1.21022e-07, No Iterations 1
smoothSolver:  Solving for k, Initial residual = 0.00566989, Final residual = 2.94149e-06, No Iterations 1
ExecutionTime = 85.06 s  ClockTime = 85 s

Time = 1.125

Courant Number mean: 0.0378163 max: 0.293822
smoothSolver:  Solving for Ux, Initial residual = 0.00286644, Final residual = 5.5899e-06, No Iterations 1
smoothSolver:  Solving for Uy, Initial residual = 0.00286654, Final residual = 5.5918e-06, No Iterations 1
smoothSolver:  Solving for Uz, Initial residual = 0.00571581, Final residual = 1.56074e-06, No Iterations 1
DICPCG:  Solving for p, Initial residual = 0.000480404, Final residual = 1.65048e-05, No Iterations 2
time step continuity errors : sum local = 8.86954e-11, global = -4.94645e-12, cumulative = -2.52516e-09
DICPCG:  Solving for p, Initial residual = 3.05505e-05, Final residual = 9.32467e-07, No Iterations 445
time step continuity errors : sum local = 5.01087e-12, global = -1.33791e-13, cumulative = -2.5253e-09
smoothSolver:  Solving for epsilon, Initial residual = 0.000187233, Final residual = 1.1964e-07, No Iterations 1
smoothSolver:  Solving for k, Initial residual = 0.00554725, Final residual = 2.85395e-06, No Iterations 1
ExecutionTime = 87.45 s  ClockTime = 88 s

Time = 1.15

Courant Number mean: 0.0378161 max: 0.293885
smoothSolver:  Solving for Ux, Initial residual = 0.0028326, Final residual = 5.5447e-06, No Iterations 1
smoothSolver:  Solving for Uy, Initial residual = 0.00283267, Final residual = 5.54578e-06, No Iterations 1
smoothSolver:  Solving for Uz, Initial residual = 0.00559953, Final residual = 1.52651e-06, No Iterations 1
DICPCG:  Solving for p, Initial residual = 0.00047343, Final residual = 1.59221e-05, No Iterations 2
time step continuity errors : sum local = 8.56732e-11, global = -4.64793e-12, cumulative = -2.52994e-09
DICPCG:  Solving for p, Initial residual = 3.01636e-05, Final residual = 9.01877e-07, No Iterations 445
time step continuity errors : sum local = 4.85271e-12, global = -1.32447e-13, cumulative = -2.53008e-09
smoothSolver:  Solving for epsilon, Initial residual = 0.000185391, Final residual = 1.17767e-07, No Iterations 1
smoothSolver:  Solving for k, Initial residual = 0.0054299, Final residual = 2.83453e-06, No Iterations 1
ExecutionTime = 89.84 s  ClockTime = 90 s

Time = 1.175

Courant Number mean: 0.0378158 max: 0.293939
smoothSolver:  Solving for Ux, Initial residual = 0.00280055, Final residual = 5.5137e-06, No Iterations 1
smoothSolver:  Solving for Uy, Initial residual = 0.00280065, Final residual = 5.5149e-06, No Iterations 1
smoothSolver:  Solving for Uz, Initial residual = 0.0054879, Final residual = 1.49355e-06, No Iterations 1
DICPCG:  Solving for p, Initial residual = 0.000456769, Final residual = 1.62817e-05, No Iterations 2
time step continuity errors : sum local = 8.77187e-11, global = -4.94841e-12, cumulative = -2.53502e-09
DICPCG:  Solving for p, Initial residual = 2.96538e-05, Final residual = 9.40986e-07, No Iterations 445
time step continuity errors : sum local = 5.06943e-12, global = -1.49484e-13, cumulative = -2.53517e-09
smoothSolver:  Solving for epsilon, Initial residual = 0.000183614, Final residual = 1.15543e-07, No Iterations 1
smoothSolver:  Solving for k, Initial residual = 0.00531747, Final residual = 2.74985e-06, No Iterations 1
ExecutionTime = 91.66 s  ClockTime = 92 s

Time = 1.2

Courant Number mean: 0.0378156 max: 0.293984
smoothSolver:  Solving for Ux, Initial residual = 0.0027678, Final residual = 5.47524e-06, No Iterations 1
smoothSolver:  Solving for Uy, Initial residual = 0.00276793, Final residual = 5.47602e-06, No Iterations 1
smoothSolver:  Solving for Uz, Initial residual = 0.00538074, Final residual = 1.46199e-06, No Iterations 1
DICPCG:  Solving for p, Initial residual = 0.000437476, Final residual = 1.50164e-05, No Iterations 2
time step continuity errors : sum local = 8.10022e-11, global = -4.99065e-12, cumulative = -2.54016e-09
DICPCG:  Solving for p, Initial residual = 2.83737e-05, Final residual = 9.13449e-07, No Iterations 445
time step continuity errors : sum local = 4.92722e-12, global = -1.39089e-13, cumulative = -2.5403e-09
smoothSolver:  Solving for epsilon, Initial residual = 0.0001819, Final residual = 1.15117e-07, No Iterations 1
smoothSolver:  Solving for k, Initial residual = 0.00520964, Final residual = 2.69318e-06, No Iterations 1
ExecutionTime = 93.97 s  ClockTime = 94 s

Time = 1.225

Courant Number mean: 0.0378153 max: 0.294017
smoothSolver:  Solving for Ux, Initial residual = 0.00273624, Final residual = 5.42058e-06, No Iterations 1
smoothSolver:  Solving for Uy, Initial residual = 0.00273639, Final residual = 5.42129e-06, No Iterations 1
smoothSolver:  Solving for Uz, Initial residual = 0.00527776, Final residual = 1.43203e-06, No Iterations 1
DICPCG:  Solving for p, Initial residual = 0.000427184, Final residual = 1.4527e-05, No Iterations 2
time step continuity errors : sum local = 7.84593e-11, global = -4.92844e-12, cumulative = -2.54523e-09
DICPCG:  Solving for p, Initial residual = 2.78825e-05, Final residual = 9.0192e-07, No Iterations 445
time step continuity errors : sum local = 4.87108e-12, global = -1.32116e-13, cumulative = -2.54536e-09
smoothSolver:  Solving for epsilon, Initial residual = 0.000180221, Final residual = 1.13842e-07, No Iterations 1
smoothSolver:  Solving for k, Initial residual = 0.00510614, Final residual = 2.6306e-06, No Iterations 1
ExecutionTime = 96.45 s  ClockTime = 97 s

Time = 1.25

Courant Number mean: 0.0378151 max: 0.294039
smoothSolver:  Solving for Ux, Initial residual = 0.00270555, Final residual = 5.37235e-06, No Iterations 1
smoothSolver:  Solving for Uy, Initial residual = 0.00270566, Final residual = 5.37269e-06, No Iterations 1
smoothSolver:  Solving for Uz, Initial residual = 0.00517875, Final residual = 1.40317e-06, No Iterations 1
DICPCG:  Solving for p, Initial residual = 0.000413798, Final residual = 1.47853e-05, No Iterations 2
time step continuity errors : sum local = 7.99532e-11, global = -4.69558e-12, cumulative = -2.55006e-09
DICPCG:  Solving for p, Initial residual = 2.76253e-05, Final residual = 8.52351e-07, No Iterations 445
time step continuity errors : sum local = 4.60903e-12, global = -1.29944e-13, cumulative = -2.55019e-09
smoothSolver:  Solving for epsilon, Initial residual = 0.000178587, Final residual = 1.13467e-07, No Iterations 1
smoothSolver:  Solving for k, Initial residual = 0.00500668, Final residual = 2.57074e-06, No Iterations 1
ExecutionTime = 98.83 s  ClockTime = 99 s

Time = 1.275

Courant Number mean: 0.0378148 max: 0.29405
smoothSolver:  Solving for Ux, Initial residual = 0.00267342, Final residual = 5.32101e-06, No Iterations 1
smoothSolver:  Solving for Uy, Initial residual = 0.00267368, Final residual = 5.32161e-06, No Iterations 1
smoothSolver:  Solving for Uz, Initial residual = 0.00508346, Final residual = 1.37546e-06, No Iterations 1
DICPCG:  Solving for p, Initial residual = 0.000406716, Final residual = 1.4506e-05, No Iterations 2
time step continuity errors : sum local = 7.85391e-11, global = -4.56694e-12, cumulative = -2.55476e-09
DICPCG:  Solving for p, Initial residual = 2.74152e-05, Final residual = 8.08713e-07, No Iterations 445
time step continuity errors : sum local = 4.37845e-12, global = -1.15553e-13, cumulative = -2.55487e-09
smoothSolver:  Solving for epsilon, Initial residual = 0.000177001, Final residual = 1.12084e-07, No Iterations 1
smoothSolver:  Solving for k, Initial residual = 0.00491106, Final residual = 2.4991e-06, No Iterations 1
ExecutionTime = 101.47 s  ClockTime = 102 s

Time = 1.3

Courant Number mean: 0.0378146 max: 0.29405
smoothSolver:  Solving for Ux, Initial residual = 0.00264184, Final residual = 5.26126e-06, No Iterations 1
smoothSolver:  Solving for Uy, Initial residual = 0.00264208, Final residual = 5.26232e-06, No Iterations 1
smoothSolver:  Solving for Uz, Initial residual = 0.00499164, Final residual = 1.34869e-06, No Iterations 1
DICPCG:  Solving for p, Initial residual = 0.000399334, Final residual = 1.45991e-05, No Iterations 2
time step continuity errors : sum local = 7.91402e-11, global = -4.37717e-12, cumulative = -2.55925e-09
DICPCG:  Solving for p, Initial residual = 2.73825e-05, Final residual = 9.53025e-07, No Iterations 444
time step continuity errors : sum local = 5.16617e-12, global = -1.64644e-13, cumulative = -2.55941e-09
smoothSolver:  Solving for epsilon, Initial residual = 0.000175442, Final residual = 1.11339e-07, No Iterations 1
smoothSolver:  Solving for k, Initial residual = 0.00481903, Final residual = 2.43802e-06, No Iterations 1
ExecutionTime = 103.99 s  ClockTime = 104 s

Time = 1.325

Courant Number mean: 0.0378143 max: 0.29404
smoothSolver:  Solving for Ux, Initial residual = 0.00261169, Final residual = 5.20257e-06, No Iterations 1
smoothSolver:  Solving for Uy, Initial residual = 0.002612, Final residual = 5.20337e-06, No Iterations 1
smoothSolver:  Solving for Uz, Initial residual = 0.00490313, Final residual = 1.32308e-06, No Iterations 1
DICPCG:  Solving for p, Initial residual = 0.000391409, Final residual = 1.3719e-05, No Iterations 2
time step continuity errors : sum local = 7.44609e-11, global = -4.10506e-12, cumulative = -2.56352e-09
DICPCG:  Solving for p, Initial residual = 2.65205e-05, Final residual = 9.78199e-07, No Iterations 444
time step continuity errors : sum local = 5.30911e-12, global = -1.58178e-13, cumulative = -2.56368e-09
smoothSolver:  Solving for epsilon, Initial residual = 0.000173909, Final residual = 1.09618e-07, No Iterations 1
smoothSolver:  Solving for k, Initial residual = 0.00473039, Final residual = 2.38153e-06, No Iterations 1
ExecutionTime = 106.42 s  ClockTime = 107 s

Time = 1.35

Courant Number mean: 0.0378141 max: 0.294019
smoothSolver:  Solving for Ux, Initial residual = 0.0025827, Final residual = 5.13174e-06, No Iterations 1
smoothSolver:  Solving for Uy, Initial residual = 0.0025829, Final residual = 5.13215e-06, No Iterations 1
smoothSolver:  Solving for Uz, Initial residual = 0.00481776, Final residual = 1.29855e-06, No Iterations 1
DICPCG:  Solving for p, Initial residual = 0.000388505, Final residual = 1.29542e-05, No Iterations 2
time step continuity errors : sum local = 7.03945e-11, global = -3.39757e-12, cumulative = -2.56708e-09
DICPCG:  Solving for p, Initial residual = 2.60693e-05, Final residual = 9.18313e-07, No Iterations 444
time step continuity errors : sum local = 4.99009e-12, global = -1.31291e-13, cumulative = -2.56721e-09
smoothSolver:  Solving for epsilon, Initial residual = 0.000172388, Final residual = 1.09505e-07, No Iterations 1
smoothSolver:  Solving for k, Initial residual = 0.00464494, Final residual = 2.34534e-06, No Iterations 1
ExecutionTime = 108.74 s  ClockTime = 109 s

Time = 1.375

Courant Number mean: 0.0378138 max: 0.29399
smoothSolver:  Solving for Ux, Initial residual = 0.00255453, Final residual = 5.05387e-06, No Iterations 1
smoothSolver:  Solving for Uy, Initial residual = 0.00255479, Final residual = 5.05413e-06, No Iterations 1
smoothSolver:  Solving for Uz, Initial residual = 0.00473535, Final residual = 1.27481e-06, No Iterations 1
DICPCG:  Solving for p, Initial residual = 0.000389815, Final residual = 1.35108e-05, No Iterations 2
time step continuity errors : sum local = 7.35071e-11, global = -3.14067e-12, cumulative = -2.57035e-09
DICPCG:  Solving for p, Initial residual = 2.67003e-05, Final residual = 9.0655e-07, No Iterations 444
time step continuity errors : sum local = 4.93203e-12, global = -1.31629e-13, cumulative = -2.57048e-09
smoothSolver:  Solving for epsilon, Initial residual = 0.000170934, Final residual = 1.07496e-07, No Iterations 1
smoothSolver:  Solving for k, Initial residual = 0.00456253, Final residual = 2.28226e-06, No Iterations 1
ExecutionTime = 110.55 s  ClockTime = 111 s

Time = 1.4

Courant Number mean: 0.0378136 max: 0.293952
smoothSolver:  Solving for Ux, Initial residual = 0.00252857, Final residual = 4.96713e-06, No Iterations 1
smoothSolver:  Solving for Uy, Initial residual = 0.00252875, Final residual = 4.96733e-06, No Iterations 1
smoothSolver:  Solving for Uz, Initial residual = 0.00465574, Final residual = 1.25206e-06, No Iterations 1
DICPCG:  Solving for p, Initial residual = 0.000378327, Final residual = 1.28114e-05, No Iterations 2
time step continuity errors : sum local = 6.97852e-11, global = -3.0423e-12, cumulative = -2.57352e-09
DICPCG:  Solving for p, Initial residual = 2.59973e-05, Final residual = 8.65316e-07, No Iterations 444
time step continuity errors : sum local = 4.71338e-12, global = -1.13498e-13, cumulative = -2.57363e-09
smoothSolver:  Solving for epsilon, Initial residual = 0.000169486, Final residual = 1.06694e-07, No Iterations 1
smoothSolver:  Solving for k, Initial residual = 0.004483, Final residual = 2.23523e-06, No Iterations 1
ExecutionTime = 112.38 s  ClockTime = 113 s

Time = 1.425

Courant Number mean: 0.0378133 max: 0.293908
smoothSolver:  Solving for Ux, Initial residual = 0.0025021, Final residual = 4.88464e-06, No Iterations 1
smoothSolver:  Solving for Uy, Initial residual = 0.00250226, Final residual = 4.88526e-06, No Iterations 1
smoothSolver:  Solving for Uz, Initial residual = 0.00457877, Final residual = 1.23018e-06, No Iterations 1
DICPCG:  Solving for p, Initial residual = 0.000368924, Final residual = 1.31067e-05, No Iterations 2
time step continuity errors : sum local = 7.14798e-11, global = -2.94741e-12, cumulative = -2.57658e-09
DICPCG:  Solving for p, Initial residual = 2.62e-05, Final residual = 9.44969e-07, No Iterations 443
time step continuity errors : sum local = 5.15351e-12, global = -1.28423e-13, cumulative = -2.57671e-09
smoothSolver:  Solving for epsilon, Initial residual = 0.000168073, Final residual = 1.05906e-07, No Iterations 1
smoothSolver:  Solving for k, Initial residual = 0.00440617, Final residual = 2.19276e-06, No Iterations 1
ExecutionTime = 114.18 s  ClockTime = 115 s

Time = 1.45

Courant Number mean: 0.0378131 max: 0.293858
smoothSolver:  Solving for Ux, Initial residual = 0.00247567, Final residual = 4.78343e-06, No Iterations 1
smoothSolver:  Solving for Uy, Initial residual = 0.00247578, Final residual = 4.78366e-06, No Iterations 1
smoothSolver:  Solving for Uz, Initial residual = 0.00450433, Final residual = 1.20906e-06, No Iterations 1
DICPCG:  Solving for p, Initial residual = 0.000358416, Final residual = 1.32396e-05, No Iterations 2
time step continuity errors : sum local = 7.22921e-11, global = -1.99929e-12, cumulative = -2.57871e-09
DICPCG:  Solving for p, Initial residual = 2.61083e-05, Final residual = 9.2271e-07, No Iterations 443
time step continuity errors : sum local = 5.03824e-12, global = -1.20781e-13, cumulative = -2.57883e-09
smoothSolver:  Solving for epsilon, Initial residual = 0.000166676, Final residual = 1.03465e-07, No Iterations 1
smoothSolver:  Solving for k, Initial residual = 0.00433191, Final residual = 2.15792e-06, No Iterations 1
ExecutionTime = 116 s  ClockTime = 116 s

Time = 1.475

Courant Number mean: 0.0378128 max: 0.293804
smoothSolver:  Solving for Ux, Initial residual = 0.00245092, Final residual = 4.68421e-06, No Iterations 1
smoothSolver:  Solving for Uy, Initial residual = 0.00245102, Final residual = 4.68464e-06, No Iterations 1
smoothSolver:  Solving for Uz, Initial residual = 0.0044323, Final residual = 1.18838e-06, No Iterations 1
DICPCG:  Solving for p, Initial residual = 0.00035438, Final residual = 1.30328e-05, No Iterations 2
time step continuity errors : sum local = 7.12489e-11, global = -1.32594e-12, cumulative = -2.58016e-09
DICPCG:  Solving for p, Initial residual = 2.60644e-05, Final residual = 8.61404e-07, No Iterations 442
time step continuity errors : sum local = 4.70919e-12, global = -1.30426e-13, cumulative = -2.58029e-09
smoothSolver:  Solving for epsilon, Initial residual = 0.000165347, Final residual = 1.0329e-07, No Iterations 1
smoothSolver:  Solving for k, Initial residual = 0.00426006, Final residual = 2.10293e-06, No Iterations 1
ExecutionTime = 117.82 s  ClockTime = 118 s

Time = 1.5

Courant Number mean: 0.0378126 max: 0.293747
smoothSolver:  Solving for Ux, Initial residual = 0.00242673, Final residual = 4.57827e-06, No Iterations 1
smoothSolver:  Solving for Uy, Initial residual = 0.00242683, Final residual = 4.5789e-06, No Iterations 1
smoothSolver:  Solving for Uz, Initial residual = 0.00436258, Final residual = 1.16834e-06, No Iterations 1
DICPCG:  Solving for p, Initial residual = 0.000349696, Final residual = 1.26488e-05, No Iterations 2
time step continuity errors : sum local = 6.92321e-11, global = -9.14595e-13, cumulative = -2.5812e-09
DICPCG:  Solving for p, Initial residual = 2.52596e-05, Final residual = 8.48952e-07, No Iterations 442
time step continuity errors : sum local = 4.64661e-12, global = -1.31809e-13, cumulative = -2.58133e-09
smoothSolver:  Solving for epsilon, Initial residual = 0.000163985, Final residual = 1.02062e-07, No Iterations 1
smoothSolver:  Solving for k, Initial residual = 0.00419054, Final residual = 2.07104e-06, No Iterations 1
ExecutionTime = 120.18 s  ClockTime = 121 s

Time = 1.525

Courant Number mean: 0.0378124 max: 0.293689
smoothSolver:  Solving for Ux, Initial residual = 0.00240416, Final residual = 4.48717e-06, No Iterations 1
smoothSolver:  Solving for Uy, Initial residual = 0.00240424, Final residual = 4.48761e-06, No Iterations 1
smoothSolver:  Solving for Uz, Initial residual = 0.00429503, Final residual = 1.14899e-06, No Iterations 1
DICPCG:  Solving for p, Initial residual = 0.000344275, Final residual = 1.3067e-05, No Iterations 2
time step continuity errors : sum local = 7.16053e-11, global = -7.12805e-13, cumulative = -2.58205e-09
DICPCG:  Solving for p, Initial residual = 2.57327e-05, Final residual = 8.78915e-07, No Iterations 441
time step continuity errors : sum local = 4.8163e-12, global = -1.51495e-13, cumulative = -2.5822e-09
smoothSolver:  Solving for epsilon, Initial residual = 0.000162691, Final residual = 1.00861e-07, No Iterations 1
smoothSolver:  Solving for k, Initial residual = 0.00412325, Final residual = 2.03682e-06, No Iterations 1
ExecutionTime = 122.27 s  ClockTime = 123 s

Time = 1.55

Courant Number mean: 0.0378121 max: 0.293631
smoothSolver:  Solving for Ux, Initial residual = 0.00238271, Final residual = 4.4028e-06, No Iterations 1
smoothSolver:  Solving for Uy, Initial residual = 0.00238283, Final residual = 4.40314e-06, No Iterations 1
smoothSolver:  Solving for Uz, Initial residual = 0.00422958, Final residual = 1.13034e-06, No Iterations 1
DICPCG:  Solving for p, Initial residual = 0.000338373, Final residual = 1.32819e-05, No Iterations 2
time step continuity errors : sum local = 7.28694e-11, global = -5.9504e-14, cumulative = -2.58226e-09
DICPCG:  Solving for p, Initial residual = 2.54323e-05, Final residual = 9.13649e-07, No Iterations 441
time step continuity errors : sum local = 5.01264e-12, global = -1.55334e-13, cumulative = -2.58241e-09
smoothSolver:  Solving for epsilon, Initial residual = 0.000161432, Final residual = 1.00464e-07, No Iterations 1
smoothSolver:  Solving for k, Initial residual = 0.00405808, Final residual = 1.99995e-06, No Iterations 1
ExecutionTime = 124.55 s  ClockTime = 125 s

Time = 1.575

Courant Number mean: 0.0378119 max: 0.293573
smoothSolver:  Solving for Ux, Initial residual = 0.00236105, Final residual = 4.31377e-06, No Iterations 1
smoothSolver:  Solving for Uy, Initial residual = 0.00236131, Final residual = 4.31466e-06, No Iterations 1
smoothSolver:  Solving for Uz, Initial residual = 0.00416611, Final residual = 1.11209e-06, No Iterations 1
DICPCG:  Solving for p, Initial residual = 0.000349068, Final residual = 1.29964e-05, No Iterations 2
time step continuity errors : sum local = 7.13879e-11, global = 1.76647e-13, cumulative = -2.58224e-09
DICPCG:  Solving for p, Initial residual = 2.59649e-05, Final residual = 9.4095e-07, No Iterations 439
time step continuity errors : sum local = 5.16852e-12, global = -9.21814e-14, cumulative = -2.58233e-09
smoothSolver:  Solving for epsilon, Initial residual = 0.000160177, Final residual = 9.92801e-08, No Iterations 1
smoothSolver:  Solving for k, Initial residual = 0.00399493, Final residual = 1.96067e-06, No Iterations 1
ExecutionTime = 126.32 s  ClockTime = 127 s

Time = 1.6

Courant Number mean: 0.0378116 max: 0.293517
smoothSolver:  Solving for Ux, Initial residual = 0.00234107, Final residual = 4.2142e-06, No Iterations 1
smoothSolver:  Solving for Uy, Initial residual = 0.00234128, Final residual = 4.21457e-06, No Iterations 1
smoothSolver:  Solving for Uz, Initial residual = 0.00410456, Final residual = 1.09426e-06, No Iterations 1
DICPCG:  Solving for p, Initial residual = 0.000329184, Final residual = 1.27001e-05, No Iterations 2
time step continuity errors : sum local = 6.98416e-11, global = 1.18629e-12, cumulative = -2.58114e-09
DICPCG:  Solving for p, Initial residual = 2.43651e-05, Final residual = 9.17389e-07, No Iterations 440
time step continuity errors : sum local = 5.045e-12, global = -8.93361e-14, cumulative = -2.58123e-09
smoothSolver:  Solving for epsilon, Initial residual = 0.00015897, Final residual = 9.88382e-08, No Iterations 1
smoothSolver:  Solving for k, Initial residual = 0.0039337, Final residual = 1.92849e-06, No Iterations 1
ExecutionTime = 128.12 s  ClockTime = 128 s

Time = 1.625

Courant Number mean: 0.0378114 max: 0.293465
smoothSolver:  Solving for Ux, Initial residual = 0.00232047, Final residual = 4.12144e-06, No Iterations 1
smoothSolver:  Solving for Uy, Initial residual = 0.00232072, Final residual = 4.12227e-06, No Iterations 1
smoothSolver:  Solving for Uz, Initial residual = 0.00404481, Final residual = 1.07724e-06, No Iterations 1
DICPCG:  Solving for p, Initial residual = 0.000337145, Final residual = 1.2843e-05, No Iterations 2
time step continuity errors : sum local = 7.07098e-11, global = 6.32468e-13, cumulative = -2.5806e-09
DICPCG:  Solving for p, Initial residual = 2.49861e-05, Final residual = 9.18742e-07, No Iterations 440
time step continuity errors : sum local = 5.05829e-12, global = 8.311e-15, cumulative = -2.58059e-09
smoothSolver:  Solving for epsilon, Initial residual = 0.000157762, Final residual = 9.73675e-08, No Iterations 1
smoothSolver:  Solving for k, Initial residual = 0.00387431, Final residual = 1.90644e-06, No Iterations 1
ExecutionTime = 129.93 s  ClockTime = 130 s

Time = 1.65

Courant Number mean: 0.0378111 max: 0.293415
smoothSolver:  Solving for Ux, Initial residual = 0.00229929, Final residual = 4.03974e-06, No Iterations 1
smoothSolver:  Solving for Uy, Initial residual = 0.00229938, Final residual = 4.04003e-06, No Iterations 1
smoothSolver:  Solving for Uz, Initial residual = 0.00398698, Final residual = 1.06094e-06, No Iterations 1
DICPCG:  Solving for p, Initial residual = 0.000333267, Final residual = 1.31615e-05, No Iterations 2
time step continuity errors : sum local = 7.25474e-11, global = 9.45e-13, cumulative = -2.57965e-09
DICPCG:  Solving for p, Initial residual = 2.53478e-05, Final residual = 8.85803e-07, No Iterations 440
time step continuity errors : sum local = 4.88263e-12, global = -7.228e-14, cumulative = -2.57972e-09
smoothSolver:  Solving for epsilon, Initial residual = 0.000156599, Final residual = 9.70339e-08, No Iterations 1
smoothSolver:  Solving for k, Initial residual = 0.00381667, Final residual = 1.85027e-06, No Iterations 1
ExecutionTime = 131.73 s  ClockTime = 132 s

Time = 1.675

Courant Number mean: 0.0378109 max: 0.29337
smoothSolver:  Solving for Ux, Initial residual = 0.00228086, Final residual = 3.95837e-06, No Iterations 1
smoothSolver:  Solving for Uy, Initial residual = 0.00228103, Final residual = 3.95887e-06, No Iterations 1
smoothSolver:  Solving for Uz, Initial residual = 0.00393112, Final residual = 1.04524e-06, No Iterations 1
DICPCG:  Solving for p, Initial residual = 0.000325712, Final residual = 1.24712e-05, No Iterations 2
time step continuity errors : sum local = 6.88209e-11, global = 2.96428e-13, cumulative = -2.57942e-09
DICPCG:  Solving for p, Initial residual = 2.42146e-05, Final residual = 9.62366e-07, No Iterations 439
time step continuity errors : sum local = 5.31068e-12, global = -3.11236e-14, cumulative = -2.57945e-09
smoothSolver:  Solving for epsilon, Initial residual = 0.000155425, Final residual = 9.58873e-08, No Iterations 1
smoothSolver:  Solving for k, Initial residual = 0.00376067, Final residual = 1.84495e-06, No Iterations 1
ExecutionTime = 133.53 s  ClockTime = 134 s

Time = 1.7

Courant Number mean: 0.0378106 max: 0.29333
smoothSolver:  Solving for Ux, Initial residual = 0.0022615, Final residual = 3.88065e-06, No Iterations 1
smoothSolver:  Solving for Uy, Initial residual = 0.00226168, Final residual = 3.88163e-06, No Iterations 1
smoothSolver:  Solving for Uz, Initial residual = 0.00387684, Final residual = 1.02985e-06, No Iterations 1
DICPCG:  Solving for p, Initial residual = 0.000322671, Final residual = 1.31551e-05, No Iterations 2
time step continuity errors : sum local = 7.26772e-11, global = 1.20215e-12, cumulative = -2.57825e-09
DICPCG:  Solving for p, Initial residual = 2.48542e-05, Final residual = 9.7086e-07, No Iterations 438
time step continuity errors : sum local = 5.36362e-12, global = -1.22042e-13, cumulative = -2.57837e-09
smoothSolver:  Solving for epsilon, Initial residual = 0.000154314, Final residual = 9.4105e-08, No Iterations 1
smoothSolver:  Solving for k, Initial residual = 0.00370627, Final residual = 1.80072e-06, No Iterations 1
ExecutionTime = 135.35 s  ClockTime = 136 s

Time = 1.725

Courant Number mean: 0.0378104 max: 0.293295
smoothSolver:  Solving for Ux, Initial residual = 0.0022429, Final residual = 3.82039e-06, No Iterations 1
smoothSolver:  Solving for Uy, Initial residual = 0.00224309, Final residual = 3.82126e-06, No Iterations 1
smoothSolver:  Solving for Uz, Initial residual = 0.00382408, Final residual = 1.01468e-06, No Iterations 1
DICPCG:  Solving for p, Initial residual = 0.000300204, Final residual = 1.23328e-05, No Iterations 2
time step continuity errors : sum local = 6.82119e-11, global = 9.53241e-13, cumulative = -2.57742e-09
DICPCG:  Solving for p, Initial residual = 2.32544e-05, Final residual = 9.06402e-07, No Iterations 440
time step continuity errors : sum local = 5.01336e-12, global = 4.03605e-15, cumulative = -2.57741e-09
smoothSolver:  Solving for epsilon, Initial residual = 0.000153172, Final residual = 9.38397e-08, No Iterations 1
smoothSolver:  Solving for k, Initial residual = 0.00365339, Final residual = 1.78408e-06, No Iterations 1
ExecutionTime = 137.19 s  ClockTime = 138 s

Time = 1.75

Courant Number mean: 0.0378101 max: 0.293265
smoothSolver:  Solving for Ux, Initial residual = 0.00222522, Final residual = 3.76969e-06, No Iterations 1
smoothSolver:  Solving for Uy, Initial residual = 0.00222537, Final residual = 3.77027e-06, No Iterations 1
smoothSolver:  Solving for Uz, Initial residual = 0.0037728, Final residual = 9.99844e-07, No Iterations 1
DICPCG:  Solving for p, Initial residual = 0.000295615, Final residual = 1.24045e-05, No Iterations 2
time step continuity errors : sum local = 6.86881e-11, global = 8.16337e-13, cumulative = -2.5766e-09
DICPCG:  Solving for p, Initial residual = 2.31661e-05, Final residual = 8.84998e-07, No Iterations 437
time step continuity errors : sum local = 4.9006e-12, global = -3.26866e-14, cumulative = -2.57663e-09
smoothSolver:  Solving for epsilon, Initial residual = 0.000152103, Final residual = 9.25378e-08, No Iterations 1
smoothSolver:  Solving for k, Initial residual = 0.00360194, Final residual = 1.74186e-06, No Iterations 1
ExecutionTime = 138.98 s  ClockTime = 139 s

Time = 1.775

Courant Number mean: 0.0378099 max: 0.29324
smoothSolver:  Solving for Ux, Initial residual = 0.00220853, Final residual = 3.71552e-06, No Iterations 1
smoothSolver:  Solving for Uy, Initial residual = 0.00220861, Final residual = 3.71602e-06, No Iterations 1
smoothSolver:  Solving for Uz, Initial residual = 0.00372292, Final residual = 9.8539e-07, No Iterations 1
DICPCG:  Solving for p, Initial residual = 0.000293791, Final residual = 1.26031e-05, No Iterations 2
time step continuity errors : sum local = 6.98671e-11, global = 5.98095e-14, cumulative = -2.57657e-09
DICPCG:  Solving for p, Initial residual = 2.31525e-05, Final residual = 8.6487e-07, No Iterations 441
time step continuity errors : sum local = 4.7946e-12, global = -4.15916e-14, cumulative = -2.57661e-09
smoothSolver:  Solving for epsilon, Initial residual = 0.000151021, Final residual = 9.17942e-08, No Iterations 1
smoothSolver:  Solving for k, Initial residual = 0.00355189, Final residual = 1.72641e-06, No Iterations 1
ExecutionTime = 140.8 s  ClockTime = 141 s

Time = 1.8

Courant Number mean: 0.0378096 max: 0.293221
smoothSolver:  Solving for Ux, Initial residual = 0.00219252, Final residual = 3.65903e-06, No Iterations 1
smoothSolver:  Solving for Uy, Initial residual = 0.00219265, Final residual = 3.65945e-06, No Iterations 1
smoothSolver:  Solving for Uz, Initial residual = 0.00367437, Final residual = 9.71339e-07, No Iterations 1
DICPCG:  Solving for p, Initial residual = 0.000283054, Final residual = 1.22961e-05, No Iterations 2
time step continuity errors : sum local = 6.82429e-11, global = -3.42916e-13, cumulative = -2.57696e-09
DICPCG:  Solving for p, Initial residual = 2.23129e-05, Final residual = 9.09169e-07, No Iterations 440
time step continuity errors : sum local = 5.04592e-12, global = 5.96451e-15, cumulative = -2.57695e-09
smoothSolver:  Solving for epsilon, Initial residual = 0.000149949, Final residual = 9.04316e-08, No Iterations 1
smoothSolver:  Solving for k, Initial residual = 0.00350317, Final residual = 1.70204e-06, No Iterations 1
ExecutionTime = 142.62 s  ClockTime = 143 s

Time = 1.825

Courant Number mean: 0.0378094 max: 0.293206
smoothSolver:  Solving for Ux, Initial residual = 0.00217644, Final residual = 3.60047e-06, No Iterations 1
smoothSolver:  Solving for Uy, Initial residual = 0.00217659, Final residual = 3.60113e-06, No Iterations 1
smoothSolver:  Solving for Uz, Initial residual = 0.00362711, Final residual = 9.57597e-07, No Iterations 1
DICPCG:  Solving for p, Initial residual = 0.000278686, Final residual = 1.22593e-05, No Iterations 2
time step continuity errors : sum local = 6.8116e-11, global = -2.62344e-13, cumulative = -2.57721e-09
DICPCG:  Solving for p, Initial residual = 2.23475e-05, Final residual = 9.25252e-07, No Iterations 440
time step continuity errors : sum local = 5.14104e-12, global = -7.1802e-14, cumulative = -2.57728e-09
smoothSolver:  Solving for epsilon, Initial residual = 0.000148915, Final residual = 8.99485e-08, No Iterations 1
smoothSolver:  Solving for k, Initial residual = 0.00345571, Final residual = 1.68815e-06, No Iterations 1
ExecutionTime = 144.41 s  ClockTime = 145 s

Time = 1.85

Courant Number mean: 0.0378091 max: 0.293196
smoothSolver:  Solving for Ux, Initial residual = 0.00216104, Final residual = 3.54315e-06, No Iterations 1
smoothSolver:  Solving for Uy, Initial residual = 0.00216115, Final residual = 3.54371e-06, No Iterations 1
smoothSolver:  Solving for Uz, Initial residual = 0.00358107, Final residual = 9.44174e-07, No Iterations 1
DICPCG:  Solving for p, Initial residual = 0.000271851, Final residual = 1.20304e-05, No Iterations 2
time step continuity errors : sum local = 6.69202e-11, global = -7.07643e-13, cumulative = -2.57799e-09
DICPCG:  Solving for p, Initial residual = 2.19549e-05, Final residual = 8.58951e-07, No Iterations 442
time step continuity errors : sum local = 4.77808e-12, global = -1.17095e-13, cumulative = -2.57811e-09
smoothSolver:  Solving for epsilon, Initial residual = 0.000147885, Final residual = 8.85115e-08, No Iterations 1
smoothSolver:  Solving for k, Initial residual = 0.00340948, Final residual = 1.64645e-06, No Iterations 1
ExecutionTime = 146.19 s  ClockTime = 147 s

Time = 1.875

Courant Number mean: 0.0378089 max: 0.293191
[...]
smoothSolver:  Solving for Uz, Initial residual = 0.000156965, Final residual = 3.12269e-08, No Iterations 1
DICPCG:  Solving for p, Initial residual = 1.27422e-05, Final residual = 9.05776e-07, No Iterations 25
time step continuity errors : sum local = 5.0596e-12, global = 7.0299e-13, cumulative = -2.5059e-09
DICPCG:  Solving for p, Initial residual = 2.54129e-06, Final residual = 9.25801e-07, No Iterations 1
time step continuity errors : sum local = 5.17145e-12, global = 1.03398e-12, cumulative = -2.50486e-09
smoothSolver:  Solving for epsilon, Initial residual = 1.97878e-05, Final residual = 9.44093e-09, No Iterations 1
smoothSolver:  Solving for k, Initial residual = 0.00016313, Final residual = 6.01988e-08, No Iterations 1
ExecutionTime = 1495.28 s  ClockTime = 1497 s

Time = 39.575

Courant Number mean: 0.0374394 max: 0.293317
smoothSolver:  Solving for Ux, Initial residual = 0.000203733, Final residual = 6.83935e-08, No Iterations 1
smoothSolver:  Solving for Uy, Initial residual = 0.000203754, Final residual = 6.84332e-08, No Iterations 1
smoothSolver:  Solving for Uz, Initial residual = 0.000156853, Final residual = 3.12022e-08, No Iterations 1
DICPCG:  Solving for p, Initial residual = 1.30683e-05, Final residual = 9.83679e-07, No Iterations 17
time step continuity errors : sum local = 5.49477e-12, global = 1.36962e-12, cumulative = -2.50349e-09
DICPCG:  Solving for p, Initial residual = 2.59921e-06, Final residual = 9.37004e-07, No Iterations 1
time step continuity errors : sum local = 5.23405e-12, global = 1.69371e-12, cumulative = -2.5018e-09
smoothSolver:  Solving for epsilon, Initial residual = 1.97931e-05, Final residual = 9.44653e-09, No Iterations 1
smoothSolver:  Solving for k, Initial residual = 0.000163044, Final residual = 6.01667e-08, No Iterations 1
ExecutionTime = 1495.61 s  ClockTime = 1497 s

Time = 39.6

Courant Number mean: 0.0374392 max: 0.293317
smoothSolver:  Solving for Ux, Initial residual = 0.00020367, Final residual = 6.83369e-08, No Iterations 1
smoothSolver:  Solving for Uy, Initial residual = 0.000203688, Final residual = 6.83104e-08, No Iterations 1
smoothSolver:  Solving for Uz, Initial residual = 0.000156742, Final residual = 3.11778e-08, No Iterations 1
DICPCG:  Solving for p, Initial residual = 1.28285e-05, Final residual = 9.7162e-07, No Iterations 366
time step continuity errors : sum local = 5.42742e-12, global = 2.26215e-13, cumulative = -2.50157e-09
DICPCG:  Solving for p, Initial residual = 2.5367e-06, Final residual = 8.15968e-07, No Iterations 1
time step continuity errors : sum local = 4.55196e-12, global = 4.79273e-13, cumulative = -2.50109e-09
smoothSolver:  Solving for epsilon, Initial residual = 1.97984e-05, Final residual = 9.44858e-09, No Iterations 1
smoothSolver:  Solving for k, Initial residual = 0.000162957, Final residual = 6.0125e-08, No Iterations 1
ExecutionTime = 1497.08 s  ClockTime = 1498 s

Time = 39.625

Courant Number mean: 0.037439 max: 0.293317
smoothSolver:  Solving for Ux, Initial residual = 0.000202269, Final residual = 6.78256e-08, No Iterations 1
smoothSolver:  Solving for Uy, Initial residual = 0.000202276, Final residual = 6.78629e-08, No Iterations 1
smoothSolver:  Solving for Uz, Initial residual = 0.000156564, Final residual = 3.1149e-08, No Iterations 1
DICPCG:  Solving for p, Initial residual = 1.397e-05, Final residual = 9.55736e-07, No Iterations 13
time step continuity errors : sum local = 5.33168e-12, global = -9.98554e-13, cumulative = -2.50209e-09
DICPCG:  Solving for p, Initial residual = 2.56136e-06, Final residual = 9.795e-07, No Iterations 1
time step continuity errors : sum local = 5.46425e-12, global = -6.80962e-13, cumulative = -2.50277e-09
smoothSolver:  Solving for epsilon, Initial residual = 1.98036e-05, Final residual = 9.45143e-09, No Iterations 1
smoothSolver:  Solving for k, Initial residual = 0.00016287, Final residual = 6.00902e-08, No Iterations 1
ExecutionTime = 1497.4 s  ClockTime = 1499 s

Time = 39.65

Courant Number mean: 0.0374388 max: 0.293317
smoothSolver:  Solving for Ux, Initial residual = 0.000202235, Final residual = 6.77735e-08, No Iterations 1
smoothSolver:  Solving for Uy, Initial residual = 0.000202223, Final residual = 6.77294e-08, No Iterations 1
smoothSolver:  Solving for Uz, Initial residual = 0.000156454, Final residual = 3.11247e-08, No Iterations 1
DICPCG:  Solving for p, Initial residual = 1.39894e-05, Final residual = 8.91891e-07, No Iterations 402
time step continuity errors : sum local = 4.97551e-12, global = -7.40513e-14, cumulative = -2.50285e-09
DICPCG:  Solving for p, Initial residual = 2.51745e-06, Final residual = 7.85305e-07, No Iterations 1
time step continuity errors : sum local = 4.38742e-12, global = 3.237e-13, cumulative = -2.50252e-09
smoothSolver:  Solving for epsilon, Initial residual = 1.98089e-05, Final residual = 9.45218e-09, No Iterations 1
smoothSolver:  Solving for k, Initial residual = 0.000162783, Final residual = 6.00611e-08, No Iterations 1
ExecutionTime = 1499 s  ClockTime = 1500 s

Time = 39.675

Courant Number mean: 0.0374386 max: 0.293317
smoothSolver:  Solving for Ux, Initial residual = 0.000203744, Final residual = 6.81299e-08, No Iterations 1
smoothSolver:  Solving for Uy, Initial residual = 0.000203755, Final residual = 6.81674e-08, No Iterations 1
smoothSolver:  Solving for Uz, Initial residual = 0.000156417, Final residual = 3.11047e-08, No Iterations 1
DICPCG:  Solving for p, Initial residual = 1.26469e-05, Final residual = 9.91552e-07, No Iterations 428
time step continuity errors : sum local = 5.53971e-12, global = 4.4823e-14, cumulative = -2.50248e-09
DICPCG:  Solving for p, Initial residual = 2.54575e-06, Final residual = 8.2675e-07, No Iterations 1
time step continuity errors : sum local = 4.61492e-12, global = 3.33076e-13, cumulative = -2.50215e-09
smoothSolver:  Solving for epsilon, Initial residual = 1.98142e-05, Final residual = 9.45654e-09, No Iterations 1
smoothSolver:  Solving for k, Initial residual = 0.000162696, Final residual = 6.00339e-08, No Iterations 1
ExecutionTime = 1500.73 s  ClockTime = 1502 s

Time = 39.7

Courant Number mean: 0.0374384 max: 0.293317
smoothSolver:  Solving for Ux, Initial residual = 0.000202837, Final residual = 6.78043e-08, No Iterations 1
smoothSolver:  Solving for Uy, Initial residual = 0.000202817, Final residual = 6.77542e-08, No Iterations 1
smoothSolver:  Solving for Uz, Initial residual = 0.000156261, Final residual = 3.10774e-08, No Iterations 1
DICPCG:  Solving for p, Initial residual = 1.22567e-05, Final residual = 9.90388e-07, No Iterations 7
time step continuity errors : sum local = 5.52835e-12, global = 3.24447e-13, cumulative = -2.50182e-09
DICPCG:  Solving for p, Initial residual = 2.55329e-06, Final residual = 8.41276e-07, No Iterations 2
time step continuity errors : sum local = 4.69601e-12, global = 4.54605e-13, cumulative = -2.50137e-09
smoothSolver:  Solving for epsilon, Initial residual = 1.98194e-05, Final residual = 9.45879e-09, No Iterations 1
smoothSolver:  Solving for k, Initial residual = 0.000162609, Final residual = 6.00006e-08, No Iterations 1
ExecutionTime = 1501.04 s  ClockTime = 1502 s

Time = 39.725

Courant Number mean: 0.0374382 max: 0.293317
smoothSolver:  Solving for Ux, Initial residual = 0.000202827, Final residual = 6.77122e-08, No Iterations 1
smoothSolver:  Solving for Uy, Initial residual = 0.000202824, Final residual = 6.77513e-08, No Iterations 1
smoothSolver:  Solving for Uz, Initial residual = 0.000156149, Final residual = 3.10525e-08, No Iterations 1
DICPCG:  Solving for p, Initial residual = 1.27529e-05, Final residual = 9.94167e-07, No Iterations 18
time step continuity errors : sum local = 5.54945e-12, global = 6.4021e-13, cumulative = -2.50073e-09
DICPCG:  Solving for p, Initial residual = 2.62183e-06, Final residual = 9.64924e-07, No Iterations 1
time step continuity errors : sum local = 5.38623e-12, global = 9.47054e-13, cumulative = -2.49978e-09
smoothSolver:  Solving for epsilon, Initial residual = 1.98247e-05, Final residual = 9.46377e-09, No Iterations 1
smoothSolver:  Solving for k, Initial residual = 0.000162522, Final residual = 5.99697e-08, No Iterations 1
ExecutionTime = 1501.38 s  ClockTime = 1503 s

Time = 39.75

Courant Number mean: 0.037438 max: 0.293317
smoothSolver:  Solving for Ux, Initial residual = 0.000202716, Final residual = 6.7662e-08, No Iterations 1
smoothSolver:  Solving for Uy, Initial residual = 0.000202708, Final residual = 6.76109e-08, No Iterations 1
smoothSolver:  Solving for Uz, Initial residual = 0.000156038, Final residual = 3.1028e-08, No Iterations 1
DICPCG:  Solving for p, Initial residual = 1.24483e-05, Final residual = 9.93139e-07, No Iterations 39
time step continuity errors : sum local = 5.54373e-12, global = 8.62032e-13, cumulative = -2.49892e-09
DICPCG:  Solving for p, Initial residual = 2.61303e-06, Final residual = 9.36832e-07, No Iterations 1
time step continuity errors : sum local = 5.2294e-12, global = 1.18296e-12, cumulative = -2.49774e-09
smoothSolver:  Solving for epsilon, Initial residual = 1.98298e-05, Final residual = 9.465e-09, No Iterations 1
smoothSolver:  Solving for k, Initial residual = 0.000162434, Final residual = 5.99438e-08, No Iterations 1
ExecutionTime = 1501.8 s  ClockTime = 1503 s

Time = 39.775

Courant Number mean: 0.0374378 max: 0.293317
smoothSolver:  Solving for Ux, Initial residual = 0.000202617, Final residual = 6.75591e-08, No Iterations 1
smoothSolver:  Solving for Uy, Initial residual = 0.000202622, Final residual = 6.76041e-08, No Iterations 1
smoothSolver:  Solving for Uz, Initial residual = 0.000155926, Final residual = 3.10033e-08, No Iterations 1
DICPCG:  Solving for p, Initial residual = 1.29714e-05, Final residual = 9.64003e-07, No Iterations 346
time step continuity errors : sum local = 5.38108e-12, global = 3.04548e-13, cumulative = -2.49743e-09
DICPCG:  Solving for p, Initial residual = 2.52103e-06, Final residual = 8.19639e-07, No Iterations 1
time step continuity errors : sum local = 4.57138e-12, global = 5.95672e-13, cumulative = -2.49684e-09
smoothSolver:  Solving for epsilon, Initial residual = 1.98351e-05, Final residual = 9.46905e-09, No Iterations 1
smoothSolver:  Solving for k, Initial residual = 0.000162347, Final residual = 5.9909e-08, No Iterations 1
ExecutionTime = 1503.19 s  ClockTime = 1505 s

Time = 39.8

Courant Number mean: 0.0374376 max: 0.293317
smoothSolver:  Solving for Ux, Initial residual = 0.000201679, Final residual = 6.72431e-08, No Iterations 1
smoothSolver:  Solving for Uy, Initial residual = 0.000201694, Final residual = 6.71955e-08, No Iterations 1
smoothSolver:  Solving for Uz, Initial residual = 0.000155772, Final residual = 3.09763e-08, No Iterations 1
DICPCG:  Solving for p, Initial residual = 1.29961e-05, Final residual = 9.46916e-07, No Iterations 435
time step continuity errors : sum local = 5.28125e-12, global = -4.39854e-14, cumulative = -2.49688e-09
DICPCG:  Solving for p, Initial residual = 2.5052e-06, Final residual = 7.98777e-07, No Iterations 1
time step continuity errors : sum local = 4.45679e-12, global = 2.86061e-13, cumulative = -2.49659e-09
smoothSolver:  Solving for epsilon, Initial residual = 1.98402e-05, Final residual = 9.4729e-09, No Iterations 1
smoothSolver:  Solving for k, Initial residual = 0.000162259, Final residual = 5.98767e-08, No Iterations 1
ExecutionTime = 1504.88 s  ClockTime = 1506 s

Time = 39.825

Courant Number mean: 0.0374374 max: 0.293317
smoothSolver:  Solving for Ux, Initial residual = 0.000202043, Final residual = 6.72634e-08, No Iterations 1
smoothSolver:  Solving for Uy, Initial residual = 0.000202048, Final residual = 6.72999e-08, No Iterations 1
smoothSolver:  Solving for Uz, Initial residual = 0.00015568, Final residual = 3.09528e-08, No Iterations 1
DICPCG:  Solving for p, Initial residual = 1.28263e-05, Final residual = 9.09002e-07, No Iterations 7
time step continuity errors : sum local = 5.07181e-12, global = -9.01899e-14, cumulative = -2.49668e-09
DICPCG:  Solving for p, Initial residual = 2.52112e-06, Final residual = 9.46434e-07, No Iterations 1
time step continuity errors : sum local = 5.28066e-12, global = 2.34107e-13, cumulative = -2.49645e-09
smoothSolver:  Solving for epsilon, Initial residual = 1.98454e-05, Final residual = 9.47692e-09, No Iterations 1
smoothSolver:  Solving for k, Initial residual = 0.000162172, Final residual = 5.98593e-08, No Iterations 1
ExecutionTime = 1505.18 s  ClockTime = 1507 s

Time = 39.85

Courant Number mean: 0.0374372 max: 0.293317
smoothSolver:  Solving for Ux, Initial residual = 0.000202015, Final residual = 6.72189e-08, No Iterations 1
smoothSolver:  Solving for Uy, Initial residual = 0.000202021, Final residual = 6.71711e-08, No Iterations 1
smoothSolver:  Solving for Uz, Initial residual = 0.000155569, Final residual = 3.09283e-08, No Iterations 1
DICPCG:  Solving for p, Initial residual = 1.27469e-05, Final residual = 9.79133e-07, No Iterations 46
time step continuity errors : sum local = 5.46311e-12, global = 1.09566e-13, cumulative = -2.49634e-09
DICPCG:  Solving for p, Initial residual = 2.58961e-06, Final residual = 8.79682e-07, No Iterations 1
time step continuity errors : sum local = 4.90822e-12, global = 4.16508e-13, cumulative = -2.49592e-09
smoothSolver:  Solving for epsilon, Initial residual = 1.98506e-05, Final residual = 9.48012e-09, No Iterations 1
smoothSolver:  Solving for k, Initial residual = 0.000162084, Final residual = 5.98155e-08, No Iterations 1
ExecutionTime = 1505.6 s  ClockTime = 1507 s

Time = 39.875

Courant Number mean: 0.037437 max: 0.293317
smoothSolver:  Solving for Ux, Initial residual = 0.00020191, Final residual = 6.70995e-08, No Iterations 1
smoothSolver:  Solving for Uy, Initial residual = 0.000201918, Final residual = 6.71399e-08, No Iterations 1
smoothSolver:  Solving for Uz, Initial residual = 0.000155458, Final residual = 3.09037e-08, No Iterations 1
DICPCG:  Solving for p, Initial residual = 1.29418e-05, Final residual = 9.4523e-07, No Iterations 25
time step continuity errors : sum local = 5.27396e-12, global = 4.96628e-13, cumulative = -2.49543e-09
DICPCG:  Solving for p, Initial residual = 2.57326e-06, Final residual = 9.3055e-07, No Iterations 1
time step continuity errors : sum local = 5.19206e-12, global = 8.26681e-13, cumulative = -2.4946e-09
smoothSolver:  Solving for epsilon, Initial residual = 1.98557e-05, Final residual = 9.48396e-09, No Iterations 1
smoothSolver:  Solving for k, Initial residual = 0.000161996, Final residual = 5.98e-08, No Iterations 1
ExecutionTime = 1505.95 s  ClockTime = 1507 s

Time = 39.9

Courant Number mean: 0.0374368 max: 0.293317
smoothSolver:  Solving for Ux, Initial residual = 0.000201876, Final residual = 6.70793e-08, No Iterations 1
smoothSolver:  Solving for Uy, Initial residual = 0.000201878, Final residual = 6.70376e-08, No Iterations 1
smoothSolver:  Solving for Uz, Initial residual = 0.000155347, Final residual = 3.08793e-08, No Iterations 1
DICPCG:  Solving for p, Initial residual = 1.30258e-05, Final residual = 9.1272e-07, No Iterations 421
time step continuity errors : sum local = 5.09258e-12, global = 9.91396e-14, cumulative = -2.4945e-09
DICPCG:  Solving for p, Initial residual = 2.48363e-06, Final residual = 7.54756e-07, No Iterations 1
time step continuity errors : sum local = 4.2077e-12, global = 3.87288e-13, cumulative = -2.49411e-09
smoothSolver:  Solving for epsilon, Initial residual = 1.98608e-05, Final residual = 9.48741e-09, No Iterations 1
smoothSolver:  Solving for k, Initial residual = 0.000161908, Final residual = 5.9774e-08, No Iterations 1
ExecutionTime = 1507.61 s  ClockTime = 1509 s

Time = 39.925

Courant Number mean: 0.0374365 max: 0.293317
smoothSolver:  Solving for Ux, Initial residual = 0.000200966, Final residual = 6.67023e-08, No Iterations 1
smoothSolver:  Solving for Uy, Initial residual = 0.000200991, Final residual = 6.67535e-08, No Iterations 1
smoothSolver:  Solving for Uz, Initial residual = 0.000155198, Final residual = 3.0852e-08, No Iterations 1
DICPCG:  Solving for p, Initial residual = 1.24415e-05, Final residual = 9.75949e-07, No Iterations 7
time step continuity errors : sum local = 5.44084e-12, global = -3.34588e-13, cumulative = -2.49445e-09
DICPCG:  Solving for p, Initial residual = 2.54308e-06, Final residual = 8.53365e-07, No Iterations 2
time step continuity errors : sum local = 4.75745e-12, global = -2.49595e-13, cumulative = -2.4947e-09
smoothSolver:  Solving for epsilon, Initial residual = 1.9866e-05, Final residual = 9.49133e-09, No Iterations 1
smoothSolver:  Solving for k, Initial residual = 0.000161819, Final residual = 5.9725e-08, No Iterations 1
ExecutionTime = 1507.91 s  ClockTime = 1509 s

Time = 39.95

Courant Number mean: 0.0374363 max: 0.293317
smoothSolver:  Solving for Ux, Initial residual = 0.000200967, Final residual = 6.67003e-08, No Iterations 1
smoothSolver:  Solving for Uy, Initial residual = 0.000200957, Final residual = 6.66438e-08, No Iterations 1
smoothSolver:  Solving for Uz, Initial residual = 0.000155089, Final residual = 3.08277e-08, No Iterations 1
DICPCG:  Solving for p, Initial residual = 1.29825e-05, Final residual = 8.89505e-07, No Iterations 397
time step continuity errors : sum local = 4.95893e-12, global = 4.02889e-14, cumulative = -2.49466e-09
DICPCG:  Solving for p, Initial residual = 2.4559e-06, Final residual = 7.92872e-07, No Iterations 1
time step continuity errors : sum local = 4.42339e-12, global = 3.77402e-13, cumulative = -2.49428e-09
smoothSolver:  Solving for epsilon, Initial residual = 1.98712e-05, Final residual = 9.49589e-09, No Iterations 1
smoothSolver:  Solving for k, Initial residual = 0.000161731, Final residual = 5.96831e-08, No Iterations 1
ExecutionTime = 1509.52 s  ClockTime = 1511 s

Time = 39.975

Courant Number mean: 0.0374361 max: 0.293317
smoothSolver:  Solving for Ux, Initial residual = 0.000201621, Final residual = 6.68326e-08, No Iterations 1
smoothSolver:  Solving for Uy, Initial residual = 0.000201628, Final residual = 6.68782e-08, No Iterations 1
smoothSolver:  Solving for Uz, Initial residual = 0.000155014, Final residual = 3.08056e-08, No Iterations 1
DICPCG:  Solving for p, Initial residual = 1.17323e-05, Final residual = 9.56456e-07, No Iterations 399
time step continuity errors : sum local = 5.33602e-12, global = 4.11453e-14, cumulative = -2.49424e-09
DICPCG:  Solving for p, Initial residual = 2.47492e-06, Final residual = 8.28067e-07, No Iterations 1
time step continuity errors : sum local = 4.61752e-12, global = 3.46317e-13, cumulative = -2.49389e-09
smoothSolver:  Solving for epsilon, Initial residual = 1.98764e-05, Final residual = 9.50004e-09, No Iterations 1
smoothSolver:  Solving for k, Initial residual = 0.000161643, Final residual = 5.96436e-08, No Iterations 1
ExecutionTime = 1511.08 s  ClockTime = 1512 s

Time = 40

Courant Number mean: 0.0374359 max: 0.293317
smoothSolver:  Solving for Ux, Initial residual = 0.000201112, Final residual = 6.66933e-08, No Iterations 1
smoothSolver:  Solving for Uy, Initial residual = 0.000201089, Final residual = 6.6626e-08, No Iterations 1
smoothSolver:  Solving for Uz, Initial residual = 0.000154883, Final residual = 3.07797e-08, No Iterations 1
DICPCG:  Solving for p, Initial residual = 1.25572e-05, Final residual = 9.68929e-07, No Iterations 8
time step continuity errors : sum local = 5.40301e-12, global = 5.26771e-14, cumulative = -2.49384e-09
DICPCG:  Solving for p, Initial residual = 2.49929e-06, Final residual = 9.65191e-07, No Iterations 1
time step continuity errors : sum local = 5.38216e-12, global = 3.86875e-13, cumulative = -2.49345e-09
smoothSolver:  Solving for epsilon, Initial residual = 1.98816e-05, Final residual = 9.50228e-09, No Iterations 1
smoothSolver:  Solving for k, Initial residual = 0.000161554, Final residual = 5.96891e-08, No Iterations 1
ExecutionTime = 1511.92 s  ClockTime = 1513 s

End

