/*---------------------------------------------------------------------------*\
| =========                 |                                                 |
| \\      /  F ield         | OpenFOAM: The Open Source CFD Toolbox           |
|  \\    /   O peration     | Version:  2206                                  |
|   \\  /    A nd           | Website:  www.openfoam.com                      |
|    \\/     M anipulation  |                                                 |
\*---------------------------------------------------------------------------*/
Build  : _76d719d1-20220624 OPENFOAM=2206 version=2206
Arch   : "LSB;label=32;scalar=64"
Exec   : reconstructPar
Date   : Nov 13 2023
Time   : 09:02:29
Host   : MSI
PID    : 1288
I/O    : uncollated
Case   : /home/baqer/Git-hub-OpenFoam/snappy-pipe-2/pipe-flow-2/PisoFoam-turbulant
nProcs : 1
trapFpe: Floating point exception trapping enabled (FOAM_SIGFPE).
fileModificationChecking : Monitoring run-time modified files using timeStampMaster (fileModificationSkew 5, maxFileModificationPolls 20)
allowSystemOperations : Allowing user-supplied system call operations

// * * * * * * * * * * * * * * * * * * * * * * * * * * * * * * * * * * * * * //
Create time



Reconstructing fields
region=region0

Time = 0.5

Reconstructing FV fields

    Reconstructing volScalarFields

        epsilon
        k
        nut
        p

    Reconstructing volVectorFields

        U

    Reconstructing surfaceScalarFields

        phi

Reconstructing point fields

No point fields

No lagrangian fields

No FA fields

Time = 1

Reconstructing FV fields

    Reconstructing volScalarFields

        epsilon
        k
        nut
        p

    Reconstructing volVectorFields

        U

    Reconstructing surfaceScalarFields

        phi

Reconstructing point fields

No point fields

No lagrangian fields

No FA fields

Time = 1.5

Reconstructing FV fields

    Reconstructing volScalarFields

        epsilon
        k
        nut
        p

    Reconstructing volVectorFields

        U

    Reconstructing surfaceScalarFields

        phi

Reconstructing point fields

No point fields

No lagrangian fields

No FA fields

Time = 2

Reconstructing FV fields

    Reconstructing volScalarFields

        epsilon
        k
        nut
        p

    Reconstructing volVectorFields

        U

    Reconstructing surfaceScalarFields

        phi

Reconstructing point fields

No point fields

No lagrangian fields

No FA fields

Time = 2.5

Reconstructing FV fields

    Reconstructing volScalarFields

        epsilon
        k
        nut
        p

    Reconstructing volVectorFields

        U

    Reconstructing surfaceScalarFields

        phi

Reconstructing point fields

No point fields

No lagrangian fields

No FA fields

Time = 3

Reconstructing FV fields

    Reconstructing volScalarFields

        epsilon
        k
        nut
        p

    Reconstructing volVectorFields

        U

    Reconstructing surfaceScalarFields

        phi

Reconstructing point fields

No point fields

No lagrangian fields

No FA fields

Time = 3.5

Reconstructing FV fields

    Reconstructing volScalarFields

        epsilon
        k
        nut
        p

    Reconstructing volVectorFields

        U

    Reconstructing surfaceScalarFields

        phi

Reconstructing point fields

No point fields

No lagrangian fields

No FA fields

Time = 4

Reconstructing FV fields

    Reconstructing volScalarFields

        epsilon
        k
        nut
        p

    Reconstructing volVectorFields

        U

    Reconstructing surfaceScalarFields

        phi

Reconstructing point fields

No point fields

No lagrangian fields

No FA fields

Time = 4.5

Reconstructing FV fields

    Reconstructing volScalarFields

        epsilon
        k
        nut
        p

    Reconstructing volVectorFields

        U

    Reconstructing surfaceScalarFields

        phi

Reconstructing point fields

No point fields

No lagrangian fields

No FA fields

Time = 5

Reconstructing FV fields

    Reconstructing volScalarFields

        epsilon
        k
        nut
        p

    Reconstructing volVectorFields

        U

    Reconstructing surfaceScalarFields

        phi

Reconstructing point fields

No point fields

No lagrangian fields

No FA fields

Time = 5.5

Reconstructing FV fields

    Reconstructing volScalarFields

        epsilon
        k
        nut
        p

    Reconstructing volVectorFields

        U

    Reconstructing surfaceScalarFields

        phi

Reconstructing point fields

No point fields

No lagrangian fields

No FA fields

Time = 6

Reconstructing FV fields

    Reconstructing volScalarFields

        epsilon
        k
        nut
        p

    Reconstructing volVectorFields

        U

    Reconstructing surfaceScalarFields

        phi

Reconstructing point fields

No point fields

No lagrangian fields

No FA fields

Time = 6.5

Reconstructing FV fields

    Reconstructing volScalarFields

        epsilon
        k
        nut
        p

    Reconstructing volVectorFields

        U

    Reconstructing surfaceScalarFields

        phi

Reconstructing point fields

No point fields

No lagrangian fields

No FA fields

Time = 7

Reconstructing FV fields

    Reconstructing volScalarFields

        epsilon
        k
        nut
        p

    Reconstructing volVectorFields

        U

    Reconstructing surfaceScalarFields

        phi

Reconstructing point fields

No point fields

No lagrangian fields

No FA fields

Time = 7.5

Reconstructing FV fields

    Reconstructing volScalarFields

        epsilon
        k
        nut
        p

    Reconstructing volVectorFields

        U

    Reconstructing surfaceScalarFields

        phi

Reconstructing point fields

No point fields

No lagrangian fields

No FA fields

Time = 8

Reconstructing FV fields

    Reconstructing volScalarFields

        epsilon
        k
        nut
        p

    Reconstructing volVectorFields

        U

    Reconstructing surfaceScalarFields

        phi

Reconstructing point fields

No point fields

No lagrangian fields

No FA fields

Time = 8.5

Reconstructing FV fields

    Reconstructing volScalarFields

        epsilon
        k
        nut
        p

    Reconstructing volVectorFields

        U

    Reconstructing surfaceScalarFields

        phi

Reconstructing point fields

No point fields

No lagrangian fields

No FA fields

Time = 9

Reconstructing FV fields

    Reconstructing volScalarFields

        epsilon
        k
        nut
        p

    Reconstructing volVectorFields

        U

    Reconstructing surfaceScalarFields

        phi

Reconstructing point fields

No point fields

No lagrangian fields

No FA fields

Time = 9.5

Reconstructing FV fields

    Reconstructing volScalarFields

        epsilon
        k
        nut
        p

    Reconstructing volVectorFields

        U

    Reconstructing surfaceScalarFields

        phi

Reconstructing point fields

No point fields

No lagrangian fields

No FA fields

Time = 10

Reconstructing FV fields

    Reconstructing volScalarFields

        epsilon
        k
        nut
        p

    Reconstructing volVectorFields

        U

    Reconstructing surfaceScalarFields

        phi

Reconstructing point fields

No point fields

No lagrangian fields

No FA fields

Time = 10.5

Reconstructing FV fields

    Reconstructing volScalarFields

        epsilon
        k
        nut
        p

    Reconstructing volVectorFields

        U

    Reconstructing surfaceScalarFields

        phi

Reconstructing point fields

No point fields

No lagrangian fields

No FA fields

Time = 11

Reconstructing FV fields

    Reconstructing volScalarFields

        epsilon
        k
        nut
        p

    Reconstructing volVectorFields

        U

    Reconstructing surfaceScalarFields

        phi

Reconstructing point fields

No point fields

No lagrangian fields

No FA fields

Time = 11.5

Reconstructing FV fields

    Reconstructing volScalarFields

        epsilon
        k
        nut
        p

    Reconstructing volVectorFields

        U

    Reconstructing surfaceScalarFields

        phi

Reconstructing point fields

No point fields

No lagrangian fields

No FA fields

Time = 12

Reconstructing FV fields

    Reconstructing volScalarFields

        epsilon
        k
        nut
        p

    Reconstructing volVectorFields

        U

    Reconstructing surfaceScalarFields

        phi

Reconstructing point fields

No point fields

No lagrangian fields

No FA fields

Time = 12.5

Reconstructing FV fields

    Reconstructing volScalarFields

        epsilon
        k
        nut
        p

    Reconstructing volVectorFields

        U

    Reconstructing surfaceScalarFields

        phi

Reconstructing point fields

No point fields

No lagrangian fields

No FA fields

Time = 13

Reconstructing FV fields

    Reconstructing volScalarFields

        epsilon
        k
        nut
        p

    Reconstructing volVectorFields

        U

    Reconstructing surfaceScalarFields

        phi

Reconstructing point fields

No point fields

No lagrangian fields

No FA fields

Time = 13.5

Reconstructing FV fields

    Reconstructing volScalarFields

        epsilon
        k
        nut
        p

    Reconstructing volVectorFields

        U

    Reconstructing surfaceScalarFields

        phi

Reconstructing point fields

No point fields

No lagrangian fields

No FA fields

Time = 14

Reconstructing FV fields

    Reconstructing volScalarFields

        epsilon
        k
        nut
        p

    Reconstructing volVectorFields

        U

    Reconstructing surfaceScalarFields

        phi

Reconstructing point fields

No point fields

No lagrangian fields

No FA fields

Time = 14.5

Reconstructing FV fields

    Reconstructing volScalarFields

        epsilon
        k
        nut
        p

    Reconstructing volVectorFields

        U

    Reconstructing surfaceScalarFields

        phi

Reconstructing point fields

No point fields

No lagrangian fields

No FA fields

Time = 15

Reconstructing FV fields

    Reconstructing volScalarFields

        epsilon
        k
        nut
        p

    Reconstructing volVectorFields

        U

    Reconstructing surfaceScalarFields

        phi

Reconstructing point fields

No point fields

No lagrangian fields

No FA fields

Time = 15.5

Reconstructing FV fields

    Reconstructing volScalarFields

        epsilon
        k
        nut
        p

    Reconstructing volVectorFields

        U

    Reconstructing surfaceScalarFields

        phi

Reconstructing point fields

No point fields

No lagrangian fields

No FA fields

Time = 16

Reconstructing FV fields

    Reconstructing volScalarFields

        epsilon
        k
        nut
        p

    Reconstructing volVectorFields

        U

    Reconstructing surfaceScalarFields

        phi

Reconstructing point fields

No point fields

No lagrangian fields

No FA fields

Time = 16.5

Reconstructing FV fields

    Reconstructing volScalarFields

        epsilon
        k
        nut
        p

    Reconstructing volVectorFields

        U

    Reconstructing surfaceScalarFields

        phi

Reconstructing point fields

No point fields

No lagrangian fields

No FA fields

Time = 17

Reconstructing FV fields

    Reconstructing volScalarFields

        epsilon
        k
        nut
        p

    Reconstructing volVectorFields

        U

    Reconstructing surfaceScalarFields

        phi

Reconstructing point fields

No point fields

No lagrangian fields

No FA fields

Time = 17.5

Reconstructing FV fields

    Reconstructing volScalarFields

        epsilon
        k
        nut
        p

    Reconstructing volVectorFields

        U

    Reconstructing surfaceScalarFields

        phi

Reconstructing point fields

No point fields

No lagrangian fields

No FA fields

Time = 18

Reconstructing FV fields

    Reconstructing volScalarFields

        epsilon
        k
        nut
        p

    Reconstructing volVectorFields

        U

    Reconstructing surfaceScalarFields

        phi

Reconstructing point fields

No point fields

No lagrangian fields

No FA fields

Time = 18.5

Reconstructing FV fields

    Reconstructing volScalarFields

        epsilon
        k
        nut
        p

    Reconstructing volVectorFields

        U

    Reconstructing surfaceScalarFields

        phi

Reconstructing point fields

No point fields

No lagrangian fields

No FA fields

Time = 19

Reconstructing FV fields

    Reconstructing volScalarFields

        epsilon
        k
        nut
        p

    Reconstructing volVectorFields

        U

    Reconstructing surfaceScalarFields

        phi

Reconstructing point fields

No point fields

No lagrangian fields

No FA fields

Time = 19.5

Reconstructing FV fields

    Reconstructing volScalarFields

        epsilon
        k
        nut
        p

    Reconstructing volVectorFields

        U

    Reconstructing surfaceScalarFields

        phi

Reconstructing point fields

No point fields

No lagrangian fields

No FA fields

Time = 20

Reconstructing FV fields

    Reconstructing volScalarFields

        epsilon
        k
        nut
        p

    Reconstructing volVectorFields

        U

    Reconstructing surfaceScalarFields

        phi

Reconstructing point fields

No point fields

No lagrangian fields

No FA fields

Time = 20.5

Reconstructing FV fields

    Reconstructing volScalarFields

        epsilon
        k
        nut
        p

    Reconstructing volVectorFields

        U

    Reconstructing surfaceScalarFields

        phi

Reconstructing point fields

No point fields

No lagrangian fields

No FA fields

Time = 21

Reconstructing FV fields

    Reconstructing volScalarFields

        epsilon
        k
        nut
        p

    Reconstructing volVectorFields

        U

    Reconstructing surfaceScalarFields

        phi

Reconstructing point fields

No point fields

No lagrangian fields

No FA fields

Time = 21.5

Reconstructing FV fields

    Reconstructing volScalarFields

        epsilon
        k
        nut
        p

    Reconstructing volVectorFields

        U

    Reconstructing surfaceScalarFields

        phi

Reconstructing point fields

No point fields

No lagrangian fields

No FA fields

Time = 22

Reconstructing FV fields

    Reconstructing volScalarFields

        epsilon
        k
        nut
        p

    Reconstructing volVectorFields

        U

    Reconstructing surfaceScalarFields

        phi

Reconstructing point fields

No point fields

No lagrangian fields

No FA fields

Time = 22.5

Reconstructing FV fields

    Reconstructing volScalarFields

        epsilon
        k
        nut
        p

    Reconstructing volVectorFields

        U

    Reconstructing surfaceScalarFields

        phi

Reconstructing point fields

No point fields

No lagrangian fields

No FA fields

Time = 23

Reconstructing FV fields

    Reconstructing volScalarFields

        epsilon
        k
        nut
        p

    Reconstructing volVectorFields

        U

    Reconstructing surfaceScalarFields

        phi

Reconstructing point fields

No point fields

No lagrangian fields

No FA fields

Time = 23.5

Reconstructing FV fields

    Reconstructing volScalarFields

        epsilon
        k
        nut
        p

    Reconstructing volVectorFields

        U

    Reconstructing surfaceScalarFields

        phi

Reconstructing point fields

No point fields

No lagrangian fields

No FA fields

Time = 24

Reconstructing FV fields

    Reconstructing volScalarFields

        epsilon
        k
        nut
        p

    Reconstructing volVectorFields

        U

    Reconstructing surfaceScalarFields

        phi

Reconstructing point fields

No point fields

No lagrangian fields

No FA fields

Time = 24.5

Reconstructing FV fields

    Reconstructing volScalarFields

        epsilon
        k
        nut
        p

    Reconstructing volVectorFields

        U

    Reconstructing surfaceScalarFields

        phi

Reconstructing point fields

No point fields

No lagrangian fields

No FA fields

Time = 25

Reconstructing FV fields

    Reconstructing volScalarFields

        epsilon
        k
        nut
        p

    Reconstructing volVectorFields

        U

    Reconstructing surfaceScalarFields

        phi

Reconstructing point fields

No point fields

No lagrangian fields

No FA fields

Time = 25.5

Reconstructing FV fields

    Reconstructing volScalarFields

        epsilon
        k
        nut
        p

    Reconstructing volVectorFields

        U

    Reconstructing surfaceScalarFields

        phi

Reconstructing point fields

No point fields

No lagrangian fields

No FA fields

Time = 26

Reconstructing FV fields

    Reconstructing volScalarFields

        epsilon
        k
        nut
        p

    Reconstructing volVectorFields

        U

    Reconstructing surfaceScalarFields

        phi

Reconstructing point fields

No point fields

No lagrangian fields

No FA fields

Time = 26.5

Reconstructing FV fields

    Reconstructing volScalarFields

        epsilon
        k
        nut
        p

    Reconstructing volVectorFields

        U

    Reconstructing surfaceScalarFields

        phi

Reconstructing point fields

No point fields

No lagrangian fields

No FA fields

Time = 27

Reconstructing FV fields

    Reconstructing volScalarFields

        epsilon
        k
        nut
        p

    Reconstructing volVectorFields

        U

    Reconstructing surfaceScalarFields

        phi

Reconstructing point fields

No point fields

No lagrangian fields

No FA fields

Time = 27.5

Reconstructing FV fields

    Reconstructing volScalarFields

        epsilon
        k
        nut
        p

    Reconstructing volVectorFields

        U

    Reconstructing surfaceScalarFields

        phi

Reconstructing point fields

No point fields

No lagrangian fields

No FA fields

Time = 28

Reconstructing FV fields

    Reconstructing volScalarFields

        epsilon
        k
        nut
        p

    Reconstructing volVectorFields

        U

    Reconstructing surfaceScalarFields

        phi

Reconstructing point fields

No point fields

No lagrangian fields

No FA fields

Time = 28.5

Reconstructing FV fields

    Reconstructing volScalarFields

        epsilon
        k
        nut
        p

    Reconstructing volVectorFields

        U

    Reconstructing surfaceScalarFields

        phi

Reconstructing point fields

No point fields

No lagrangian fields

No FA fields

Time = 29

Reconstructing FV fields

    Reconstructing volScalarFields

        epsilon
        k
        nut
        p

    Reconstructing volVectorFields

        U

    Reconstructing surfaceScalarFields

        phi

Reconstructing point fields

No point fields

No lagrangian fields

No FA fields

Time = 29.5

Reconstructing FV fields

    Reconstructing volScalarFields

        epsilon
        k
        nut
        p

    Reconstructing volVectorFields

        U

    Reconstructing surfaceScalarFields

        phi

Reconstructing point fields

No point fields

No lagrangian fields

No FA fields

Time = 30

Reconstructing FV fields

    Reconstructing volScalarFields

        epsilon
        k
        nut
        p

    Reconstructing volVectorFields

        U

    Reconstructing surfaceScalarFields

        phi

Reconstructing point fields

No point fields

No lagrangian fields

No FA fields

Time = 30.5

Reconstructing FV fields

    Reconstructing volScalarFields

        epsilon
        k
        nut
        p

    Reconstructing volVectorFields

        U

    Reconstructing surfaceScalarFields

        phi

Reconstructing point fields

No point fields

No lagrangian fields

No FA fields

Time = 31

Reconstructing FV fields

    Reconstructing volScalarFields

        epsilon
        k
        nut
        p

    Reconstructing volVectorFields

        U

    Reconstructing surfaceScalarFields

        phi

Reconstructing point fields

No point fields

No lagrangian fields

No FA fields

Time = 31.5

Reconstructing FV fields

    Reconstructing volScalarFields

        epsilon
        k
        nut
        p

    Reconstructing volVectorFields

        U

    Reconstructing surfaceScalarFields

        phi

Reconstructing point fields

No point fields

No lagrangian fields

No FA fields

Time = 32

Reconstructing FV fields

    Reconstructing volScalarFields

        epsilon
        k
        nut
        p

    Reconstructing volVectorFields

        U

    Reconstructing surfaceScalarFields

        phi

Reconstructing point fields

No point fields

No lagrangian fields

No FA fields

Time = 32.5

Reconstructing FV fields

    Reconstructing volScalarFields

        epsilon
        k
        nut
        p

    Reconstructing volVectorFields

        U

    Reconstructing surfaceScalarFields

        phi

Reconstructing point fields

No point fields

No lagrangian fields

No FA fields

Time = 33

Reconstructing FV fields

    Reconstructing volScalarFields

        epsilon
        k
        nut
        p

    Reconstructing volVectorFields

        U

    Reconstructing surfaceScalarFields

        phi

Reconstructing point fields

No point fields

No lagrangian fields

No FA fields

Time = 33.5

Reconstructing FV fields

    Reconstructing volScalarFields

        epsilon
        k
        nut
        p

    Reconstructing volVectorFields

        U

    Reconstructing surfaceScalarFields

        phi

Reconstructing point fields

No point fields

No lagrangian fields

No FA fields

Time = 34

Reconstructing FV fields

    Reconstructing volScalarFields

        epsilon
        k
        nut
        p

    Reconstructing volVectorFields

        U

    Reconstructing surfaceScalarFields

        phi

Reconstructing point fields

No point fields

No lagrangian fields

No FA fields

Time = 34.5

Reconstructing FV fields

    Reconstructing volScalarFields

        epsilon
        k
        nut
        p

    Reconstructing volVectorFields

        U

    Reconstructing surfaceScalarFields

        phi

Reconstructing point fields

No point fields

No lagrangian fields

No FA fields

Time = 35

Reconstructing FV fields

    Reconstructing volScalarFields

        epsilon
        k
        nut
        p

    Reconstructing volVectorFields

        U

    Reconstructing surfaceScalarFields

        phi

Reconstructing point fields

No point fields

No lagrangian fields

No FA fields

Time = 35.5

Reconstructing FV fields

    Reconstructing volScalarFields

        epsilon
        k
        nut
        p

    Reconstructing volVectorFields

        U

    Reconstructing surfaceScalarFields

        phi

Reconstructing point fields

No point fields

No lagrangian fields

No FA fields

Time = 36

Reconstructing FV fields

    Reconstructing volScalarFields

        epsilon
        k
        nut
        p

    Reconstructing volVectorFields

        U

    Reconstructing surfaceScalarFields

        phi

Reconstructing point fields

No point fields

No lagrangian fields

No FA fields

Time = 36.5

Reconstructing FV fields

    Reconstructing volScalarFields

        epsilon
        k
        nut
        p

    Reconstructing volVectorFields

        U

    Reconstructing surfaceScalarFields

        phi

Reconstructing point fields

No point fields

No lagrangian fields

No FA fields

Time = 37

Reconstructing FV fields

    Reconstructing volScalarFields

        epsilon
        k
        nut
        p

    Reconstructing volVectorFields

        U

    Reconstructing surfaceScalarFields

        phi

Reconstructing point fields

No point fields

No lagrangian fields

No FA fields

Time = 37.5

Reconstructing FV fields

    Reconstructing volScalarFields

        epsilon
        k
        nut
        p

    Reconstructing volVectorFields

        U

    Reconstructing surfaceScalarFields

        phi

Reconstructing point fields

No point fields

No lagrangian fields

No FA fields

Time = 38

Reconstructing FV fields

    Reconstructing volScalarFields

        epsilon
        k
        nut
        p

    Reconstructing volVectorFields

        U

    Reconstructing surfaceScalarFields

        phi

Reconstructing point fields

No point fields

No lagrangian fields

No FA fields

Time = 38.5

Reconstructing FV fields

    Reconstructing volScalarFields

        epsilon
        k
        nut
        p

    Reconstructing volVectorFields

        U

    Reconstructing surfaceScalarFields

        phi

Reconstructing point fields

No point fields

No lagrangian fields

No FA fields

Time = 39

Reconstructing FV fields

    Reconstructing volScalarFields

        epsilon
        k
        nut
        p

    Reconstructing volVectorFields

        U

    Reconstructing surfaceScalarFields

        phi

Reconstructing point fields

No point fields

No lagrangian fields

No FA fields

Time = 39.5

Reconstructing FV fields

    Reconstructing volScalarFields

        epsilon
        k
        nut
        p

    Reconstructing volVectorFields

        U

    Reconstructing surfaceScalarFields

        phi

Reconstructing point fields

No point fields

No lagrangian fields

No FA fields

Time = 40

Reconstructing FV fields

    Reconstructing volScalarFields

        epsilon
        k
        nut
        p

    Reconstructing volVectorFields

        U

    Reconstructing surfaceScalarFields

        phi

Reconstructing point fields

No point fields

No lagrangian fields

No FA fields


End

