/*---------------------------------------------------------------------------*\
| =========                 |                                                 |
| \\      /  F ield         | OpenFOAM: The Open Source CFD Toolbox           |
|  \\    /   O peration     | Version:  2206                                  |
|   \\  /    A nd           | Website:  www.openfoam.com                      |
|    \\/     M anipulation  |                                                 |
\*---------------------------------------------------------------------------*/
Build  : _76d719d1-20220624 OPENFOAM=2206 version=2206
Arch   : "LSB;label=32;scalar=64"
Exec   : pimpleFoam -parallel
Date   : Nov 18 2023
Time   : 10:16:01
Host   : MSI
PID    : 6514
I/O    : uncollated
Case   : /home/baqer/Git-hub-OpenFoam/snappy-pipe-2/pipe-flow-2/pimpleFoam_snappyHex
nProcs : 6
Hosts  :
(
    (MSI 6)
)
Pstream initialized with:
    floatTransfer      : 0
    nProcsSimpleSum    : 0
    commsType          : nonBlocking
    polling iterations : 0
trapFpe: Floating point exception trapping enabled (FOAM_SIGFPE).
fileModificationChecking : Monitoring run-time modified files using timeStampMaster (fileModificationSkew 5, maxFileModificationPolls 20)
allowSystemOperations : Allowing user-supplied system call operations

// * * * * * * * * * * * * * * * * * * * * * * * * * * * * * * * * * * * * * //
Create time

Create mesh for time = 0


PIMPLE: max iterations = 1000
    field U	: relTol 0, tolerance 0.001
    field p	: relTol 0, tolerance 0.05

Reading field p

Reading field U

Reading/calculating face flux field phi

Selecting incompressible transport model Newtonian
Selecting turbulence model type RAS
Selecting RAS turbulence model kEpsilon
RAS
{
    RASModel        kEpsilon;
    turbulence      on;
    printCoeffs     on;
    Cmu             0.09;
    C1              1.44;
    C2              1.92;
    C3              0;
    sigmak          1;
    sigmaEps        1.3;
}

No MRF models present

No finite volume options present
Courant Number mean: 0.0376758 max: 0.306184
Courant Number mean: 0.0376758 max: 0.306184

Starting time loop

Courant Number mean: 0.0376758 max: 0.306184
deltaT = 0.029985
Time = 0.029985

PIMPLE: iteration 1
smoothSolver:  Solving for Ux, Initial residual = 1, Final residual = 2.53436e-06, No Iterations 2
smoothSolver:  Solving for Uy, Initial residual = 1, Final residual = 2.53429e-06, No Iterations 2
smoothSolver:  Solving for Uz, Initial residual = 1, Final residual = 1.26278e-06, No Iterations 2
DICPCG:  Solving for p, Initial residual = 1, Final residual = 0.0418534, No Iterations 494
DICPCG:  Solving for p, Initial residual = 0.00966503, Final residual = 9.71891e-07, No Iterations 251
time step continuity errors : sum local = 7.05831e-10, global = 8.29661e-20, cumulative = 8.29661e-20
PIMPLE: iteration 2
smoothSolver:  Solving for Ux, Initial residual = 0.232469, Final residual = 7.23647e-06, No Iterations 1
smoothSolver:  Solving for Uy, Initial residual = 0.232468, Final residual = 7.39028e-06, No Iterations 1
smoothSolver:  Solving for Uz, Initial residual = 0.943832, Final residual = 1.23629e-08, No Iterations 2
DICPCG:  Solving for p, Initial residual = 0.56116, Final residual = 0.0252338, No Iterations 485
DICPCG:  Solving for p, Initial residual = 0.01432, Final residual = 8.89196e-07, No Iterations 524
time step continuity errors : sum local = 9.49056e-10, global = -1.14394e-19, cumulative = -3.1428e-20
PIMPLE: iteration 3
smoothSolver:  Solving for Ux, Initial residual = 0.129404, Final residual = 3.41065e-06, No Iterations 1
smoothSolver:  Solving for Uy, Initial residual = 0.129404, Final residual = 3.48837e-06, No Iterations 1
smoothSolver:  Solving for Uz, Initial residual = 0.918759, Final residual = 1.25827e-08, No Iterations 2
DICPCG:  Solving for p, Initial residual = 0.42789, Final residual = 0.0211206, No Iterations 234
DICPCG:  Solving for p, Initial residual = 0.0147853, Final residual = 9.3272e-07, No Iterations 520
time step continuity errors : sum local = 1.35543e-09, global = 7.88616e-20, cumulative = 4.74335e-20
PIMPLE: iteration 4
smoothSolver:  Solving for Ux, Initial residual = 0.0635364, Final residual = 1.41198e-06, No Iterations 1
smoothSolver:  Solving for Uy, Initial residual = 0.0635362, Final residual = 1.44574e-06, No Iterations 1
smoothSolver:  Solving for Uz, Initial residual = 0.871038, Final residual = 1.23538e-08, No Iterations 2
DICPCG:  Solving for p, Initial residual = 0.313867, Final residual = 0.0153452, No Iterations 479
DICPCG:  Solving for p, Initial residual = 0.0122262, Final residual = 9.05443e-07, No Iterations 522
time step continuity errors : sum local = 1.49431e-09, global = -1.51153e-20, cumulative = 3.23182e-20
PIMPLE: iteration 5
smoothSolver:  Solving for Ux, Initial residual = 0.0224572, Final residual = 5.73439e-07, No Iterations 1
smoothSolver:  Solving for Uy, Initial residual = 0.0224571, Final residual = 5.81731e-07, No Iterations 1
smoothSolver:  Solving for Uz, Initial residual = 0.732987, Final residual = 1.08116e-08, No Iterations 2
DICPCG:  Solving for p, Initial residual = 0.200224, Final residual = 0.00979992, No Iterations 479
DICPCG:  Solving for p, Initial residual = 0.00854957, Final residual = 9.3206e-07, No Iterations 521
time step continuity errors : sum local = 1.58269e-09, global = -4.68472e-20, cumulative = -1.45289e-20
PIMPLE: iteration 6
smoothSolver:  Solving for Ux, Initial residual = 0.00948745, Final residual = 3.61285e-07, No Iterations 1
smoothSolver:  Solving for Uy, Initial residual = 0.00948749, Final residual = 3.64272e-07, No Iterations 1
smoothSolver:  Solving for Uz, Initial residual = 0.337053, Final residual = 6.99752e-06, No Iterations 1
DICPCG:  Solving for p, Initial residual = 0.107022, Final residual = 0.00516651, No Iterations 483
DICPCG:  Solving for p, Initial residual = 0.00481427, Final residual = 8.73259e-07, No Iterations 520
time step continuity errors : sum local = 1.45236e-09, global = 4.03973e-20, cumulative = 2.58684e-20
PIMPLE: iteration 7
smoothSolver:  Solving for Ux, Initial residual = 0.0145663, Final residual = 4.22711e-07, No Iterations 1
smoothSolver:  Solving for Uy, Initial residual = 0.0145664, Final residual = 4.29003e-07, No Iterations 1
smoothSolver:  Solving for Uz, Initial residual = 0.908653, Final residual = 1.29306e-08, No Iterations 2
DICPCG:  Solving for p, Initial residual = 0.0454812, Final residual = 0.00201133, No Iterations 483
DICPCG:  Solving for p, Initial residual = 0.00195616, Final residual = 8.99729e-07, No Iterations 246
time step continuity errors : sum local = 1.84143e-09, global = -9.51121e-21, cumulative = 1.63572e-20
PIMPLE: iteration 8
smoothSolver:  Solving for Ux, Initial residual = 0.0118472, Final residual = 3.01461e-07, No Iterations 1
smoothSolver:  Solving for Uy, Initial residual = 0.0118472, Final residual = 3.06945e-07, No Iterations 1
smoothSolver:  Solving for Uz, Initial residual = 0.902307, Final residual = 1.29681e-08, No Iterations 2
DICPCG:  Solving for p, Initial residual = 0.0178475, Final residual = 0.000753739, No Iterations 242
DICPCG:  Solving for p, Initial residual = 0.000750373, Final residual = 9.63345e-07, No Iterations 509
time step continuity errors : sum local = 1.50584e-09, global = -2.31527e-20, cumulative = -6.79553e-21
PIMPLE: iteration 9
smoothSolver:  Solving for Ux, Initial residual = 0.00666432, Final residual = 1.49561e-07, No Iterations 1
smoothSolver:  Solving for Uy, Initial residual = 0.00666436, Final residual = 1.52693e-07, No Iterations 1
smoothSolver:  Solving for Uz, Initial residual = 0.832211, Final residual = 1.19212e-08, No Iterations 2
DICPCG:  Solving for p, Initial residual = 0.0194302, Final residual = 0.000928402, No Iterations 483
DICPCG:  Solving for p, Initial residual = 0.000931342, Final residual = 8.08193e-07, No Iterations 243
time step continuity errors : sum local = 1.44655e-09, global = -3.24031e-21, cumulative = -1.00358e-20
PIMPLE: iteration 10
smoothSolver:  Solving for Ux, Initial residual = 0.0025794, Final residual = 7.34807e-08, No Iterations 1
smoothSolver:  Solving for Uy, Initial residual = 0.00257941, Final residual = 7.45493e-08, No Iterations 1
smoothSolver:  Solving for Uz, Initial residual = 0.387633, Final residual = 8.06854e-06, No Iterations 1
DICPCG:  Solving for p, Initial residual = 0.0151988, Final residual = 0.000740946, No Iterations 480
DICPCG:  Solving for p, Initial residual = 0.000743899, Final residual = 9.55744e-07, No Iterations 241
time step continuity errors : sum local = 1.62625e-09, global = -1.17324e-20, cumulative = -2.17682e-20
PIMPLE: iteration 11
smoothSolver:  Solving for Ux, Initial residual = 0.000435807, Final residual = 3.27766e-08, No Iterations 1
smoothSolver:  Solving for Uy, Initial residual = 0.000435807, Final residual = 3.28039e-08, No Iterations 1
smoothSolver:  Solving for Uz, Initial residual = 0.0483062, Final residual = 1.11697e-06, No Iterations 1
DICPCG:  Solving for p, Initial residual = 0.00899571, Final residual = 0.000374463, No Iterations 483
DICPCG:  Solving for p, Initial residual = 0.000375288, Final residual = 9.2178e-07, No Iterations 110
time step continuity errors : sum local = 1.46741e-09, global = 2.2262e-20, cumulative = 4.93805e-22
PIMPLE: iteration 12
smoothSolver:  Solving for Ux, Initial residual = 0.000942593, Final residual = 3.3389e-08, No Iterations 1
smoothSolver:  Solving for Uy, Initial residual = 0.000942592, Final residual = 3.37946e-08, No Iterations 1
smoothSolver:  Solving for Uz, Initial residual = 0.130688, Final residual = 2.81294e-06, No Iterations 1
DICPCG:  Solving for p, Initial residual = 0.00420444, Final residual = 0.000188489, No Iterations 240
DICPCG:  Solving for p, Initial residual = 0.000188654, Final residual = 8.65302e-07, No Iterations 499
time step continuity errors : sum local = 1.33017e-09, global = -5.67733e-20, cumulative = -5.62795e-20
PIMPLE: iteration 13
smoothSolver:  Solving for Ux, Initial residual = 0.000791756, Final residual = 2.06875e-08, No Iterations 1
smoothSolver:  Solving for Uy, Initial residual = 0.000791755, Final residual = 2.10424e-08, No Iterations 1
smoothSolver:  Solving for Uz, Initial residual = 0.112534, Final residual = 2.40857e-06, No Iterations 1
DICPCG:  Solving for p, Initial residual = 0.00165863, Final residual = 7.57559e-05, No Iterations 243
DICPCG:  Solving for p, Initial residual = 7.57161e-05, Final residual = 8.39077e-07, No Iterations 489
time step continuity errors : sum local = 1.29237e-09, global = -5.83042e-20, cumulative = -1.14584e-19
PIMPLE: iteration 14
smoothSolver:  Solving for Ux, Initial residual = 0.000440298, Final residual = 1.12052e-08, No Iterations 1
smoothSolver:  Solving for Uy, Initial residual = 0.000440295, Final residual = 1.13928e-08, No Iterations 1
smoothSolver:  Solving for Uz, Initial residual = 0.0634356, Final residual = 1.35212e-06, No Iterations 1
DICPCG:  Solving for p, Initial residual = 0.00112886, Final residual = 5.5318e-05, No Iterations 483
DICPCG:  Solving for p, Initial residual = 5.52838e-05, Final residual = 9.52871e-07, No Iterations 38
time step continuity errors : sum local = 1.48494e-09, global = -1.21279e-19, cumulative = -2.35863e-19
PIMPLE: iteration 15
smoothSolver:  Solving for Ux, Initial residual = 0.000163183, Final residual = 7.41006e-09, No Iterations 1
smoothSolver:  Solving for Uy, Initial residual = 0.000163183, Final residual = 7.45871e-09, No Iterations 1
smoothSolver:  Solving for Uz, Initial residual = 0.0189754, Final residual = 4.00127e-07, No Iterations 1
DICPCG:  Solving for p, Initial residual = 0.000882535, Final residual = 3.80019e-05, No Iterations 486
DICPCG:  Solving for p, Initial residual = 3.79849e-05, Final residual = 9.90573e-07, No Iterations 28
time step continuity errors : sum local = 1.53542e-09, global = -3.2742e-20, cumulative = -2.68605e-19
PIMPLE: iteration 16
smoothSolver:  Solving for Ux, Initial residual = 0.000108903, Final residual = 5.661e-09, No Iterations 1
smoothSolver:  Solving for Uy, Initial residual = 0.000108901, Final residual = 5.68563e-09, No Iterations 1
smoothSolver:  Solving for Uz, Initial residual = 0.00592248, Final residual = 1.3041e-07, No Iterations 1
DICPCG:  Solving for p, Initial residual = 0.000489438, Final residual = 2.25096e-05, No Iterations 483
DICPCG:  Solving for p, Initial residual = 2.2505e-05, Final residual = 9.72294e-07, No Iterations 19
time step continuity errors : sum local = 1.503e-09, global = -5.18513e-20, cumulative = -3.20456e-19
PIMPLE: iteration 17
smoothSolver:  Solving for Ux, Initial residual = 0.000114572, Final residual = 4.17809e-09, No Iterations 1
smoothSolver:  Solving for Uy, Initial residual = 0.000114568, Final residual = 4.22202e-09, No Iterations 1
smoothSolver:  Solving for Uz, Initial residual = 0.0127952, Final residual = 2.74471e-07, No Iterations 1
DICPCG:  Solving for p, Initial residual = 0.000214701, Final residual = 9.72911e-06, No Iterations 485
DICPCG:  Solving for p, Initial residual = 9.7288e-06, Final residual = 9.96007e-07, No Iterations 15
time step continuity errors : sum local = 1.54066e-09, global = -3.97286e-21, cumulative = -3.24429e-19
PIMPLE: iteration 18
smoothSolver:  Solving for Ux, Initial residual = 8.02962e-05, Final residual = 2.29255e-09, No Iterations 1
smoothSolver:  Solving for Uy, Initial residual = 8.02935e-05, Final residual = 2.32544e-09, No Iterations 1
smoothSolver:  Solving for Uz, Initial residual = 0.0101425, Final residual = 2.15442e-07, No Iterations 1
DICPCG:  Solving for p, Initial residual = 0.000170661, Final residual = 8.32281e-06, No Iterations 243
DICPCG:  Solving for p, Initial residual = 8.32331e-06, Final residual = 9.67092e-07, No Iterations 481
time step continuity errors : sum local = 1.49026e-09, global = 6.91668e-20, cumulative = -2.55262e-19
PIMPLE: iteration 19
smoothSolver:  Solving for Ux, Initial residual = 4.20398e-05, Final residual = 1.15918e-09, No Iterations 1
smoothSolver:  Solving for Uy, Initial residual = 4.2046e-05, Final residual = 1.17505e-09, No Iterations 1
smoothSolver:  Solving for Uz, Initial residual = 0.00512448, Final residual = 1.071e-07, No Iterations 1
DICPCG:  Solving for p, Initial residual = 0.000131894, Final residual = 5.57126e-06, No Iterations 479
DICPCG:  Solving for p, Initial residual = 5.57161e-06, Final residual = 8.24037e-07, No Iterations 18
time step continuity errors : sum local = 1.27243e-09, global = 4.03005e-21, cumulative = -2.51232e-19
PIMPLE: iteration 20
smoothSolver:  Solving for Ux, Initial residual = 1.5637e-05, Final residual = 7.53574e-10, No Iterations 1
smoothSolver:  Solving for Uy, Initial residual = 1.56371e-05, Final residual = 7.56506e-10, No Iterations 1
smoothSolver:  Solving for Uz, Initial residual = 0.00127953, Final residual = 2.5953e-08, No Iterations 1
DICPCG:  Solving for p, Initial residual = 9.02157e-05, Final residual = 4.04779e-06, No Iterations 477
DICPCG:  Solving for p, Initial residual = 4.04797e-06, Final residual = 9.43372e-07, No Iterations 12
time step continuity errors : sum local = 1.45473e-09, global = -5.4409e-20, cumulative = -3.05641e-19
PIMPLE: iteration 21
smoothSolver:  Solving for Ux, Initial residual = 7.01352e-06, Final residual = 7.01352e-06, No Iterations 0
smoothSolver:  Solving for Uy, Initial residual = 7.0122e-06, Final residual = 7.0122e-06, No Iterations 0
smoothSolver:  Solving for Uz, Initial residual = 0.000614997, Final residual = 1.48158e-08, No Iterations 1
DICPCG:  Solving for p, Initial residual = 5.16034e-05, Final residual = 2.21082e-06, No Iterations 484
DICPCG:  Solving for p, Initial residual = 2.21087e-06, Final residual = 9.66562e-07, No Iterations 7
time step continuity errors : sum local = 1.49028e-09, global = -1.03971e-19, cumulative = -4.09611e-19
PIMPLE: iteration 22
smoothSolver:  Solving for Ux, Initial residual = 1.91056e-05, Final residual = 4.40221e-09, No Iterations 1
smoothSolver:  Solving for Uy, Initial residual = 1.91214e-05, Final residual = 4.42114e-09, No Iterations 1
smoothSolver:  Solving for Uz, Initial residual = 0.00264685, Final residual = 2.61356e-07, No Iterations 1
DICPCG:  Solving for p, Initial residual = 0.705911, Final residual = 0.0208709, No Iterations 2
DICPCG:  Solving for p, Initial residual = 0.0659279, Final residual = 9.8514e-07, No Iterations 524
time step continuity errors : sum local = 7.07412e-10, global = -3.67225e-20, cumulative = -4.46334e-19
smoothSolver:  Solving for epsilon, Initial residual = 0.0013244, Final residual = 6.66356e-07, No Iterations 1
smoothSolver:  Solving for k, Initial residual = 1, Final residual = 3.0751e-07, No Iterations 3
PIMPLE: converged in 22 iterations
ExecutionTime = 18.63 s  ClockTime = 19 s

Courant Number mean: 0.00499158 max: 0.205678
deltaT = 0.035982
Time = 0.065967

PIMPLE: iteration 1
smoothSolver:  Solving for Ux, Initial residual = 0.192201, Final residual = 7.03603e-06, No Iterations 1
smoothSolver:  Solving for Uy, Initial residual = 0.192201, Final residual = 7.18824e-06, No Iterations 1
smoothSolver:  Solving for Uz, Initial residual = 0.965104, Final residual = 1.09977e-08, No Iterations 2
DICPCG:  Solving for p, Initial residual = 0.831681, Final residual = 0.0391907, No Iterations 481
DICPCG:  Solving for p, Initial residual = 0.023398, Final residual = 9.24027e-07, No Iterations 527
time step continuity errors : sum local = 2.8254e-09, global = 2.17935e-20, cumulative = -4.2454e-19
PIMPLE: iteration 2
smoothSolver:  Solving for Ux, Initial residual = 0.0642976, Final residual = 1.56861e-06, No Iterations 1
smoothSolver:  Solving for Uy, Initial residual = 0.0642974, Final residual = 1.58825e-06, No Iterations 1
smoothSolver:  Solving for Uz, Initial residual = 0.8849, Final residual = 1.16976e-08, No Iterations 2
DICPCG:  Solving for p, Initial residual = 0.459483, Final residual = 0.0224363, No Iterations 483
DICPCG:  Solving for p, Initial residual = 0.0160578, Final residual = 8.11875e-07, No Iterations 525
time step continuity errors : sum local = 2.82105e-09, global = 3.30677e-20, cumulative = -3.91473e-19
PIMPLE: iteration 3
smoothSolver:  Solving for Ux, Initial residual = 0.0169709, Final residual = 4.67764e-07, No Iterations 1
smoothSolver:  Solving for Uy, Initial residual = 0.0169709, Final residual = 4.72687e-07, No Iterations 1
smoothSolver:  Solving for Uz, Initial residual = 0.354547, Final residual = 7.50642e-06, No Iterations 1
DICPCG:  Solving for p, Initial residual = 0.236338, Final residual = 0.0112558, No Iterations 483
DICPCG:  Solving for p, Initial residual = 0.00925624, Final residual = 8.5496e-07, No Iterations 523
time step continuity errors : sum local = 2.88929e-09, global = 6.47007e-20, cumulative = -3.26772e-19
PIMPLE: iteration 4
smoothSolver:  Solving for Ux, Initial residual = 0.0378118, Final residual = 9.64388e-07, No Iterations 1
smoothSolver:  Solving for Uy, Initial residual = 0.0378119, Final residual = 9.76116e-07, No Iterations 1
smoothSolver:  Solving for Uz, Initial residual = 0.970265, Final residual = 1.26676e-08, No Iterations 2
DICPCG:  Solving for p, Initial residual = 0.0999372, Final residual = 0.00449931, No Iterations 482
DICPCG:  Solving for p, Initial residual = 0.00410774, Final residual = 8.80907e-07, No Iterations 520
time step continuity errors : sum local = 2.74998e-09, global = 2.36565e-20, cumulative = -3.03116e-19
PIMPLE: iteration 5
smoothSolver:  Solving for Ux, Initial residual = 0.0347729, Final residual = 8.53863e-07, No Iterations 1
smoothSolver:  Solving for Uy, Initial residual = 0.0347731, Final residual = 8.66129e-07, No Iterations 1
smoothSolver:  Solving for Uz, Initial residual = 0.971072, Final residual = 1.292e-08, No Iterations 2
DICPCG:  Solving for p, Initial residual = 0.0313944, Final residual = 0.00131216, No Iterations 241
DICPCG:  Solving for p, Initial residual = 0.00129197, Final residual = 9.83343e-07, No Iterations 509
time step continuity errors : sum local = 2.85714e-09, global = 2.35387e-20, cumulative = -2.79577e-19
PIMPLE: iteration 6
smoothSolver:  Solving for Ux, Initial residual = 0.0203708, Final residual = 4.956e-07, No Iterations 1
smoothSolver:  Solving for Uy, Initial residual = 0.0203709, Final residual = 5.03722e-07, No Iterations 1
smoothSolver:  Solving for Uz, Initial residual = 0.949826, Final residual = 1.28525e-08, No Iterations 2
DICPCG:  Solving for p, Initial residual = 0.0342842, Final residual = 0.00162936, No Iterations 483
DICPCG:  Solving for p, Initial residual = 0.0016513, Final residual = 8.89937e-07, No Iterations 246
time step continuity errors : sum local = 3.127e-09, global = 2.13588e-20, cumulative = -2.58218e-19
PIMPLE: iteration 7
smoothSolver:  Solving for Ux, Initial residual = 0.00751722, Final residual = 2.09797e-07, No Iterations 1
smoothSolver:  Solving for Uy, Initial residual = 0.00751725, Final residual = 2.12889e-07, No Iterations 1
smoothSolver:  Solving for Uz, Initial residual = 0.858525, Final residual = 1.20112e-08, No Iterations 2
DICPCG:  Solving for p, Initial residual = 0.028212, Final residual = 0.00131501, No Iterations 484
DICPCG:  Solving for p, Initial residual = 0.00133079, Final residual = 9.28826e-07, No Iterations 244
time step continuity errors : sum local = 2.95465e-09, global = 2.1725e-20, cumulative = -2.36493e-19
PIMPLE: iteration 8
smoothSolver:  Solving for Ux, Initial residual = 0.00131653, Final residual = 5.85043e-08, No Iterations 1
smoothSolver:  Solving for Uy, Initial residual = 0.0013165, Final residual = 5.85712e-08, No Iterations 1
smoothSolver:  Solving for Uz, Initial residual = 0.205939, Final residual = 3.9786e-06, No Iterations 1
DICPCG:  Solving for p, Initial residual = 0.0169891, Final residual = 0.000810608, No Iterations 483
DICPCG:  Solving for p, Initial residual = 0.000814197, Final residual = 9.3546e-07, No Iterations 242
time step continuity errors : sum local = 2.86452e-09, global = 2.39184e-20, cumulative = -2.12575e-19
PIMPLE: iteration 9
smoothSolver:  Solving for Ux, Initial residual = 0.00314228, Final residual = 8.95586e-08, No Iterations 1
smoothSolver:  Solving for Uy, Initial residual = 0.00314225, Final residual = 9.05042e-08, No Iterations 1
smoothSolver:  Solving for Uz, Initial residual = 0.493812, Final residual = 9.79742e-06, No Iterations 1
DICPCG:  Solving for p, Initial residual = 0.00810773, Final residual = 0.000403369, No Iterations 243
DICPCG:  Solving for p, Initial residual = 0.000403883, Final residual = 9.39578e-07, No Iterations 502
time step continuity errors : sum local = 2.60035e-09, global = 2.19858e-20, cumulative = -1.90589e-19
PIMPLE: iteration 10
smoothSolver:  Solving for Ux, Initial residual = 0.00263831, Final residual = 6.66726e-08, No Iterations 1
smoothSolver:  Solving for Uy, Initial residual = 0.00263831, Final residual = 6.75564e-08, No Iterations 1
smoothSolver:  Solving for Uz, Initial residual = 0.446471, Final residual = 8.93863e-06, No Iterations 1
DICPCG:  Solving for p, Initial residual = 0.00331294, Final residual = 0.0001588, No Iterations 242
DICPCG:  Solving for p, Initial residual = 0.000158538, Final residual = 7.59829e-07, No Iterations 498
time step continuity errors : sum local = 2.11372e-09, global = 2.06452e-20, cumulative = -1.69944e-19
PIMPLE: iteration 11
smoothSolver:  Solving for Ux, Initial residual = 0.00145792, Final residual = 3.62698e-08, No Iterations 1
smoothSolver:  Solving for Uy, Initial residual = 0.00145792, Final residual = 3.67478e-08, No Iterations 1
smoothSolver:  Solving for Uz, Initial residual = 0.301965, Final residual = 6.07473e-06, No Iterations 1
DICPCG:  Solving for p, Initial residual = 0.00270108, Final residual = 0.0001257, No Iterations 485
DICPCG:  Solving for p, Initial residual = 0.00012548, Final residual = 9.34447e-07, No Iterations 76
time step continuity errors : sum local = 2.6457e-09, global = 2.04208e-20, cumulative = -1.49523e-19
PIMPLE: iteration 12
smoothSolver:  Solving for Ux, Initial residual = 0.000515072, Final residual = 1.58809e-08, No Iterations 1
smoothSolver:  Solving for Uy, Initial residual = 0.000515069, Final residual = 1.60136e-08, No Iterations 1
smoothSolver:  Solving for Uz, Initial residual = 0.116294, Final residual = 2.3523e-06, No Iterations 1
DICPCG:  Solving for p, Initial residual = 0.0020814, Final residual = 9.25635e-05, No Iterations 485
DICPCG:  Solving for p, Initial residual = 9.2446e-05, Final residual = 9.44237e-07, No Iterations 56
time step continuity errors : sum local = 2.66503e-09, global = 2.0861e-20, cumulative = -1.28662e-19
PIMPLE: iteration 13
smoothSolver:  Solving for Ux, Initial residual = 0.000243115, Final residual = 8.94742e-09, No Iterations 1
smoothSolver:  Solving for Uy, Initial residual = 0.00024311, Final residual = 9.005e-09, No Iterations 1
smoothSolver:  Solving for Uz, Initial residual = 0.0295086, Final residual = 5.99934e-07, No Iterations 1
DICPCG:  Solving for p, Initial residual = 0.00115711, Final residual = 5.59819e-05, No Iterations 484
DICPCG:  Solving for p, Initial residual = 5.59455e-05, Final residual = 9.84175e-07, No Iterations 40
time step continuity errors : sum local = 2.76911e-09, global = 1.90463e-20, cumulative = -1.09616e-19
PIMPLE: iteration 14
smoothSolver:  Solving for Ux, Initial residual = 0.000320652, Final residual = 9.11905e-09, No Iterations 1
smoothSolver:  Solving for Uy, Initial residual = 0.00032065, Final residual = 9.2233e-09, No Iterations 1
smoothSolver:  Solving for Uz, Initial residual = 0.0814648, Final residual = 1.64449e-06, No Iterations 1
DICPCG:  Solving for p, Initial residual = 0.000455424, Final residual = 2.1658e-05, No Iterations 480
DICPCG:  Solving for p, Initial residual = 2.16537e-05, Final residual = 9.39481e-07, No Iterations 29
time step continuity errors : sum local = 2.63523e-09, global = 2.23093e-20, cumulative = -8.73062e-20
PIMPLE: iteration 15
smoothSolver:  Solving for Ux, Initial residual = 0.000238756, Final residual = 6.0495e-09, No Iterations 1
smoothSolver:  Solving for Uy, Initial residual = 0.000238759, Final residual = 6.12846e-09, No Iterations 1
smoothSolver:  Solving for Uz, Initial residual = 0.0664824, Final residual = 1.34774e-06, No Iterations 1
DICPCG:  Solving for p, Initial residual = 0.000276428, Final residual = 1.30663e-05, No Iterations 243
DICPCG:  Solving for p, Initial residual = 1.30669e-05, Final residual = 9.63723e-07, No Iterations 484
time step continuity errors : sum local = 2.68543e-09, global = 1.92736e-20, cumulative = -6.80326e-20
PIMPLE: iteration 16
smoothSolver:  Solving for Ux, Initial residual = 0.000127885, Final residual = 3.43534e-09, No Iterations 1
smoothSolver:  Solving for Uy, Initial residual = 0.000127889, Final residual = 3.47334e-09, No Iterations 1
smoothSolver:  Solving for Uz, Initial residual = 0.0338587, Final residual = 6.90177e-07, No Iterations 1
DICPCG:  Solving for p, Initial residual = 0.000230139, Final residual = 1.01142e-05, No Iterations 486
DICPCG:  Solving for p, Initial residual = 1.01152e-05, Final residual = 9.93458e-07, No Iterations 14
time step continuity errors : sum local = 2.77327e-09, global = 2.05868e-20, cumulative = -4.74458e-20
PIMPLE: iteration 17
smoothSolver:  Solving for Ux, Initial residual = 4.77887e-05, Final residual = 1.70298e-09, No Iterations 1
smoothSolver:  Solving for Uy, Initial residual = 4.77878e-05, Final residual = 1.70985e-09, No Iterations 1
smoothSolver:  Solving for Uz, Initial residual = 0.00904512, Final residual = 1.8761e-07, No Iterations 1
DICPCG:  Solving for p, Initial residual = 0.000159979, Final residual = 7.65911e-06, No Iterations 484
DICPCG:  Solving for p, Initial residual = 7.65968e-06, Final residual = 9.96795e-07, No Iterations 12
time step continuity errors : sum local = 2.77954e-09, global = 2.13212e-20, cumulative = -2.61246e-20
PIMPLE: iteration 18
smoothSolver:  Solving for Ux, Initial residual = 1.95006e-05, Final residual = 8.78699e-10, No Iterations 1
smoothSolver:  Solving for Uy, Initial residual = 1.95006e-05, Final residual = 8.83997e-10, No Iterations 1
smoothSolver:  Solving for Uz, Initial residual = 0.00320694, Final residual = 6.29685e-08, No Iterations 1
DICPCG:  Solving for p, Initial residual = 8.65839e-05, Final residual = 3.39616e-06, No Iterations 487
DICPCG:  Solving for p, Initial residual = 3.39629e-06, Final residual = 8.80065e-07, No Iterations 8
time step continuity errors : sum local = 2.45203e-09, global = 2.21992e-20, cumulative = -3.92544e-21
PIMPLE: iteration 19
smoothSolver:  Solving for Ux, Initial residual = 2.35831e-05, Final residual = 7.43373e-10, No Iterations 1
smoothSolver:  Solving for Uy, Initial residual = 2.35897e-05, Final residual = 7.52527e-10, No Iterations 1
smoothSolver:  Solving for Uz, Initial residual = 0.00629364, Final residual = 1.25839e-07, No Iterations 1
DICPCG:  Solving for p, Initial residual = 3.79654e-05, Final residual = 1.85823e-06, No Iterations 487
DICPCG:  Solving for p, Initial residual = 1.85824e-06, Final residual = 8.98583e-07, No Iterations 4
time step continuity errors : sum local = 2.50517e-09, global = 2.35892e-20, cumulative = 1.96638e-20
PIMPLE: iteration 20
smoothSolver:  Solving for Ux, Initial residual = 1.73643e-05, Final residual = 4.72216e-10, No Iterations 1
smoothSolver:  Solving for Uy, Initial residual = 1.73669e-05, Final residual = 4.78556e-10, No Iterations 1
smoothSolver:  Solving for Uz, Initial residual = 0.00491115, Final residual = 9.87839e-08, No Iterations 1
DICPCG:  Solving for p, Initial residual = 2.55617e-05, Final residual = 1.05337e-06, No Iterations 244
DICPCG:  Solving for p, Initial residual = 1.05336e-06, Final residual = 6.22765e-07, No Iterations 1
time step continuity errors : sum local = 2.47918e-09, global = 2.25195e-20, cumulative = 4.21833e-20
PIMPLE: iteration 21
smoothSolver:  Solving for Ux, Initial residual = 9.5097e-06, Final residual = 9.5097e-06, No Iterations 0
smoothSolver:  Solving for Uy, Initial residual = 9.51045e-06, Final residual = 9.51045e-06, No Iterations 0
smoothSolver:  Solving for Uz, Initial residual = 0.00251029, Final residual = 5.02538e-08, No Iterations 1
DICPCG:  Solving for p, Initial residual = 2.33679e-05, Final residual = 9.94487e-07, No Iterations 478
DICPCG:  Solving for p, Initial residual = 9.94479e-07, Final residual = 9.94479e-07, No Iterations 0
time step continuity errors : sum local = 2.7703e-09, global = 2.04238e-20, cumulative = 6.26071e-20
PIMPLE: iteration 22
smoothSolver:  Solving for Ux, Initial residual = 3.08291e-06, Final residual = 3.08291e-06, No Iterations 0
smoothSolver:  Solving for Uy, Initial residual = 3.08034e-06, Final residual = 3.08034e-06, No Iterations 0
smoothSolver:  Solving for Uz, Initial residual = 0.000584909, Final residual = 1.17904e-08, No Iterations 1
DICPCG:  Solving for p, Initial residual = 1.56618e-05, Final residual = 9.29925e-07, No Iterations 462
DICPCG:  Solving for p, Initial residual = 9.2992e-07, Final residual = 9.2992e-07, No Iterations 0
time step continuity errors : sum local = 2.59772e-09, global = 1.98454e-20, cumulative = 8.24525e-20
PIMPLE: iteration 23
smoothSolver:  Solving for Ux, Initial residual = 5.87609e-06, Final residual = 5.87609e-06, No Iterations 0
smoothSolver:  Solving for Uy, Initial residual = 5.88518e-06, Final residual = 5.88518e-06, No Iterations 0
smoothSolver:  Solving for Uz, Initial residual = 0.000871086, Final residual = 7.27409e-08, No Iterations 1
DICPCG:  Solving for p, Initial residual = 0.347941, Final residual = 0.00414074, No Iterations 2
DICPCG:  Solving for p, Initial residual = 0.00630845, Final residual = 9.75055e-07, No Iterations 512
time step continuity errors : sum local = 3.31693e-09, global = 5.59417e-20, cumulative = 1.38394e-19
smoothSolver:  Solving for epsilon, Initial residual = 0.000963035, Final residual = 8.3627e-07, No Iterations 1
smoothSolver:  Solving for k, Initial residual = 0.0797745, Final residual = 1.48848e-06, No Iterations 2
PIMPLE: converged in 23 iterations
ExecutionTime = 36.93 s  ClockTime = 37 s

Courant Number mean: 0.00483649 max: 0.285462
deltaT = 0.0431473
Time = 0.109114

PIMPLE: iteration 1
smoothSolver:  Solving for Ux, Initial residual = 0.0338059, Final residual = 1.15465e-06, No Iterations 1
smoothSolver:  Solving for Uy, Initial residual = 0.033806, Final residual = 1.16866e-06, No Iterations 1
smoothSolver:  Solving for Uz, Initial residual = 0.377387, Final residual = 1.49209e-08, No Iterations 2
DICPCG:  Solving for p, Initial residual = 0.330008, Final residual = 0.0150845, No Iterations 3
DICPCG:  Solving for p, Initial residual = 0.012126, Final residual = 8.57417e-07, No Iterations 515
time step continuity errors : sum local = 2.74411e-09, global = 3.57493e-20, cumulative = 1.74144e-19
PIMPLE: iteration 2
smoothSolver:  Solving for Ux, Initial residual = 0.0208174, Final residual = 6.41834e-07, No Iterations 1
smoothSolver:  Solving for Uy, Initial residual = 0.0208175, Final residual = 6.50572e-07, No Iterations 1
smoothSolver:  Solving for Uz, Initial residual = 0.341094, Final residual = 1.39345e-08, No Iterations 2
DICPCG:  Solving for p, Initial residual = 0.182221, Final residual = 0.00727135, No Iterations 4
DICPCG:  Solving for p, Initial residual = 0.00648955, Final residual = 8.8991e-07, No Iterations 517
time step continuity errors : sum local = 2.76934e-09, global = 3.44995e-20, cumulative = 2.08643e-19
PIMPLE: iteration 3
smoothSolver:  Solving for Ux, Initial residual = 0.0130368, Final residual = 3.70641e-07, No Iterations 1
smoothSolver:  Solving for Uy, Initial residual = 0.013037, Final residual = 3.75338e-07, No Iterations 1
smoothSolver:  Solving for Uz, Initial residual = 0.157362, Final residual = 4.91837e-06, No Iterations 1
DICPCG:  Solving for p, Initial residual = 0.105133, Final residual = 0.00407475, No Iterations 4
DICPCG:  Solving for p, Initial residual = 0.00384336, Final residual = 9.35726e-07, No Iterations 514
time step continuity errors : sum local = 2.85706e-09, global = 3.52603e-20, cumulative = 2.43903e-19
PIMPLE: iteration 4
smoothSolver:  Solving for Ux, Initial residual = 0.00864982, Final residual = 2.72073e-07, No Iterations 1
smoothSolver:  Solving for Uy, Initial residual = 0.00864988, Final residual = 2.74685e-07, No Iterations 1
smoothSolver:  Solving for Uz, Initial residual = 0.0785531, Final residual = 2.88884e-06, No Iterations 1
DICPCG:  Solving for p, Initial residual = 0.0608441, Final residual = 0.00272349, No Iterations 3
DICPCG:  Solving for p, Initial residual = 0.00264713, Final residual = 9.45666e-07, No Iterations 507
time step continuity errors : sum local = 2.8475e-09, global = 3.62359e-20, cumulative = 2.80139e-19
PIMPLE: iteration 5
smoothSolver:  Solving for Ux, Initial residual = 0.00554935, Final residual = 1.98555e-07, No Iterations 1
smoothSolver:  Solving for Uy, Initial residual = 0.00554938, Final residual = 1.99922e-07, No Iterations 1
smoothSolver:  Solving for Uz, Initial residual = 0.125655, Final residual = 4.42469e-06, No Iterations 1
DICPCG:  Solving for p, Initial residual = 0.0351286, Final residual = 0.00111014, No Iterations 2
DICPCG:  Solving for p, Initial residual = 0.00109568, Final residual = 8.69392e-07, No Iterations 502
time step continuity errors : sum local = 2.59659e-09, global = 3.46273e-20, cumulative = 3.14766e-19
PIMPLE: iteration 6
smoothSolver:  Solving for Ux, Initial residual = 0.00334351, Final residual = 1.23984e-07, No Iterations 1
smoothSolver:  Solving for Uy, Initial residual = 0.00334352, Final residual = 1.24707e-07, No Iterations 1
smoothSolver:  Solving for Uz, Initial residual = 0.0826219, Final residual = 2.9735e-06, No Iterations 1
DICPCG:  Solving for p, Initial residual = 0.0199737, Final residual = 0.000580056, No Iterations 4
DICPCG:  Solving for p, Initial residual = 0.000576899, Final residual = 8.22265e-07, No Iterations 502
time step continuity errors : sum local = 2.44415e-09, global = 3.4646e-20, cumulative = 3.49412e-19
PIMPLE: iteration 7
smoothSolver:  Solving for Ux, Initial residual = 0.00200503, Final residual = 6.89878e-08, No Iterations 1
smoothSolver:  Solving for Uy, Initial residual = 0.00200504, Final residual = 6.93846e-08, No Iterations 1
smoothSolver:  Solving for Uz, Initial residual = 0.0347985, Final residual = 1.31261e-06, No Iterations 1
DICPCG:  Solving for p, Initial residual = 0.0120703, Final residual = 0.000565392, No Iterations 4
DICPCG:  Solving for p, Initial residual = 0.00056428, Final residual = 9.06799e-07, No Iterations 501
time step continuity errors : sum local = 2.68847e-09, global = 3.63739e-20, cumulative = 3.85786e-19
PIMPLE: iteration 8
smoothSolver:  Solving for Ux, Initial residual = 0.0012403, Final residual = 4.00612e-08, No Iterations 1
smoothSolver:  Solving for Uy, Initial residual = 0.00124031, Final residual = 4.0267e-08, No Iterations 1
smoothSolver:  Solving for Uz, Initial residual = 0.00544017, Final residual = 3.06438e-07, No Iterations 1
DICPCG:  Solving for p, Initial residual = 0.00742065, Final residual = 0.000313164, No Iterations 4
DICPCG:  Solving for p, Initial residual = 0.000313006, Final residual = 9.9626e-07, No Iterations 499
time step continuity errors : sum local = 2.95005e-09, global = 3.54382e-20, cumulative = 4.21225e-19
PIMPLE: iteration 9
smoothSolver:  Solving for Ux, Initial residual = 0.000821312, Final residual = 2.66505e-08, No Iterations 1
smoothSolver:  Solving for Uy, Initial residual = 0.000821308, Final residual = 2.67469e-08, No Iterations 1
smoothSolver:  Solving for Uz, Initial residual = 0.00958772, Final residual = 3.26282e-07, No Iterations 1
DICPCG:  Solving for p, Initial residual = 0.00428321, Final residual = 0.000202195, No Iterations 3
DICPCG:  Solving for p, Initial residual = 0.000202197, Final residual = 9.15313e-07, No Iterations 497
time step continuity errors : sum local = 2.70842e-09, global = 3.54058e-20, cumulative = 4.5663e-19
PIMPLE: iteration 10
smoothSolver:  Solving for Ux, Initial residual = 0.000560546, Final residual = 1.77359e-08, No Iterations 1
smoothSolver:  Solving for Uy, Initial residual = 0.000560543, Final residual = 1.78022e-08, No Iterations 1
smoothSolver:  Solving for Uz, Initial residual = 0.0102581, Final residual = 3.19678e-07, No Iterations 1
DICPCG:  Solving for p, Initial residual = 0.00238114, Final residual = 0.000103376, No Iterations 2
DICPCG:  Solving for p, Initial residual = 0.000103396, Final residual = 9.48505e-07, No Iterations 490
time step continuity errors : sum local = 2.80678e-09, global = 3.52226e-20, cumulative = 4.91853e-19
PIMPLE: iteration 11
smoothSolver:  Solving for Ux, Initial residual = 0.000367965, Final residual = 1.0924e-08, No Iterations 1
smoothSolver:  Solving for Uy, Initial residual = 0.000367967, Final residual = 1.09706e-08, No Iterations 1
smoothSolver:  Solving for Uz, Initial residual = 0.0068697, Final residual = 2.23512e-07, No Iterations 1
DICPCG:  Solving for p, Initial residual = 0.00124303, Final residual = 4.62031e-05, No Iterations 4
DICPCG:  Solving for p, Initial residual = 4.6213e-05, Final residual = 9.19143e-07, No Iterations 479
time step continuity errors : sum local = 2.72031e-09, global = 3.58113e-20, cumulative = 5.27664e-19
PIMPLE: iteration 12
smoothSolver:  Solving for Ux, Initial residual = 0.000234648, Final residual = 6.29636e-09, No Iterations 1
smoothSolver:  Solving for Uy, Initial residual = 0.000234649, Final residual = 6.32748e-09, No Iterations 1
smoothSolver:  Solving for Uz, Initial residual = 0.00318066, Final residual = 1.06996e-07, No Iterations 1
DICPCG:  Solving for p, Initial residual = 0.000658554, Final residual = 3.21765e-05, No Iterations 4
DICPCG:  Solving for p, Initial residual = 3.21823e-05, Final residual = 9.1506e-07, No Iterations 487
time step continuity errors : sum local = 2.70631e-09, global = 3.52249e-20, cumulative = 5.62889e-19
PIMPLE: iteration 13
smoothSolver:  Solving for Ux, Initial residual = 0.000147121, Final residual = 3.92374e-09, No Iterations 1
smoothSolver:  Solving for Uy, Initial residual = 0.000147121, Final residual = 3.94208e-09, No Iterations 1
smoothSolver:  Solving for Uz, Initial residual = 0.00068572, Final residual = 2.80606e-08, No Iterations 1
DICPCG:  Solving for p, Initial residual = 0.000388793, Final residual = 1.03213e-05, No Iterations 5
DICPCG:  Solving for p, Initial residual = 1.03227e-05, Final residual = 8.56516e-07, No Iterations 486
time step continuity errors : sum local = 2.53301e-09, global = 3.54897e-20, cumulative = 5.98379e-19
PIMPLE: iteration 14
smoothSolver:  Solving for Ux, Initial residual = 0.000226029, Final residual = 2.7627e-08, No Iterations 1
smoothSolver:  Solving for Uy, Initial residual = 0.000226045, Final residual = 2.77222e-08, No Iterations 1
smoothSolver:  Solving for Uz, Initial residual = 0.00164473, Final residual = 2.72408e-07, No Iterations 1
DICPCG:  Solving for p, Initial residual = 0.380859, Final residual = 0.00444402, No Iterations 2
DICPCG:  Solving for p, Initial residual = 0.00711729, Final residual = 9.76223e-07, No Iterations 513
time step continuity errors : sum local = 3.27525e-09, global = 8.60374e-20, cumulative = 6.84416e-19
smoothSolver:  Solving for epsilon, Initial residual = 0.0011044, Final residual = 1.86932e-06, No Iterations 1
smoothSolver:  Solving for k, Initial residual = 0.0432695, Final residual = 2.08379e-06, No Iterations 2
PIMPLE: converged in 14 iterations
ExecutionTime = 45.83 s  ClockTime = 46 s

Courant Number mean: 0.00521841 max: 0.345626
deltaT = 0.0517992
Time = 0.160913

PIMPLE: iteration 1
smoothSolver:  Solving for Ux, Initial residual = 0.022683, Final residual = 7.67473e-07, No Iterations 1
smoothSolver:  Solving for Uy, Initial residual = 0.0226832, Final residual = 7.79381e-07, No Iterations 1
smoothSolver:  Solving for Uz, Initial residual = 0.182771, Final residual = 6.87897e-06, No Iterations 1
DICPCG:  Solving for p, Initial residual = 0.34275, Final residual = 0.00447164, No Iterations 2
DICPCG:  Solving for p, Initial residual = 0.003475, Final residual = 7.88526e-07, No Iterations 507
time step continuity errors : sum local = 2.73942e-09, global = 3.34371e-20, cumulative = 7.17853e-19
PIMPLE: iteration 2
smoothSolver:  Solving for Ux, Initial residual = 0.0155211, Final residual = 5.28233e-07, No Iterations 1
smoothSolver:  Solving for Uy, Initial residual = 0.0155213, Final residual = 5.34937e-07, No Iterations 1
smoothSolver:  Solving for Uz, Initial residual = 0.153726, Final residual = 5.679e-06, No Iterations 1
DICPCG:  Solving for p, Initial residual = 0.177904, Final residual = 0.00333082, No Iterations 2
DICPCG:  Solving for p, Initial residual = 0.00291553, Final residual = 9.92531e-07, No Iterations 505
time step continuity errors : sum local = 3.36314e-09, global = 3.18879e-20, cumulative = 7.49741e-19
PIMPLE: iteration 3
smoothSolver:  Solving for Ux, Initial residual = 0.0105998, Final residual = 3.6782e-07, No Iterations 1
smoothSolver:  Solving for Uy, Initial residual = 0.0106, Final residual = 3.71921e-07, No Iterations 1
smoothSolver:  Solving for Uz, Initial residual = 0.0872574, Final residual = 3.16907e-06, No Iterations 1
DICPCG:  Solving for p, Initial residual = 0.0961034, Final residual = 0.00222112, No Iterations 2
DICPCG:  Solving for p, Initial residual = 0.00207191, Final residual = 9.43247e-07, No Iterations 504
time step continuity errors : sum local = 3.13834e-09, global = 3.33293e-20, cumulative = 7.83071e-19
PIMPLE: iteration 4
smoothSolver:  Solving for Ux, Initial residual = 0.00699048, Final residual = 2.53212e-07, No Iterations 1
smoothSolver:  Solving for Uy, Initial residual = 0.00699057, Final residual = 2.55655e-07, No Iterations 1
smoothSolver:  Solving for Uz, Initial residual = 0.0282378, Final residual = 1.29383e-06, No Iterations 1
DICPCG:  Solving for p, Initial residual = 0.0531009, Final residual = 0.00118727, No Iterations 2
DICPCG:  Solving for p, Initial residual = 0.00114608, Final residual = 9.21979e-07, No Iterations 502
time step continuity errors : sum local = 3.02979e-09, global = 3.43294e-20, cumulative = 8.174e-19
PIMPLE: iteration 5
smoothSolver:  Solving for Ux, Initial residual = 0.00436038, Final residual = 1.65582e-07, No Iterations 1
smoothSolver:  Solving for Uy, Initial residual = 0.00436042, Final residual = 1.66927e-07, No Iterations 1
smoothSolver:  Solving for Uz, Initial residual = 0.0116026, Final residual = 8.764e-07, No Iterations 1
DICPCG:  Solving for p, Initial residual = 0.0295132, Final residual = 0.000569873, No Iterations 2
DICPCG:  Solving for p, Initial residual = 0.000560171, Final residual = 8.52206e-07, No Iterations 500
time step continuity errors : sum local = 2.77809e-09, global = 3.34186e-20, cumulative = 8.50818e-19
PIMPLE: iteration 6
smoothSolver:  Solving for Ux, Initial residual = 0.00272264, Final residual = 1.05256e-07, No Iterations 1
smoothSolver:  Solving for Uy, Initial residual = 0.00272266, Final residual = 1.05995e-07, No Iterations 1
smoothSolver:  Solving for Uz, Initial residual = 0.0131687, Final residual = 8.51355e-07, No Iterations 1
DICPCG:  Solving for p, Initial residual = 0.0168816, Final residual = 0.000307057, No Iterations 2
DICPCG:  Solving for p, Initial residual = 0.00030465, Final residual = 9.9516e-07, No Iterations 497
time step continuity errors : sum local = 3.22861e-09, global = 3.28166e-20, cumulative = 8.83635e-19
PIMPLE: iteration 7
smoothSolver:  Solving for Ux, Initial residual = 0.00175994, Final residual = 6.59359e-08, No Iterations 1
smoothSolver:  Solving for Uy, Initial residual = 0.00175995, Final residual = 6.63403e-08, No Iterations 1
smoothSolver:  Solving for Uz, Initial residual = 0.00700065, Final residual = 5.06284e-07, No Iterations 1
DICPCG:  Solving for p, Initial residual = 0.00957988, Final residual = 0.00021992, No Iterations 2
DICPCG:  Solving for p, Initial residual = 0.000219192, Final residual = 8.39775e-07, No Iterations 497
time step continuity errors : sum local = 2.71672e-09, global = 3.28476e-20, cumulative = 9.16483e-19
PIMPLE: iteration 8
smoothSolver:  Solving for Ux, Initial residual = 0.00112289, Final residual = 4.08347e-08, No Iterations 1
smoothSolver:  Solving for Uy, Initial residual = 0.0011229, Final residual = 4.10691e-08, No Iterations 1
smoothSolver:  Solving for Uz, Initial residual = 0.00190583, Final residual = 2.23012e-07, No Iterations 1
DICPCG:  Solving for p, Initial residual = 0.00586468, Final residual = 0.00017168, No Iterations 2
DICPCG:  Solving for p, Initial residual = 0.000171475, Final residual = 8.71654e-07, No Iterations 496
time step continuity errors : sum local = 2.81533e-09, global = 3.23429e-20, cumulative = 9.48826e-19
PIMPLE: iteration 9
smoothSolver:  Solving for Ux, Initial residual = 0.00073637, Final residual = 2.56872e-08, No Iterations 1
smoothSolver:  Solving for Uy, Initial residual = 0.000736369, Final residual = 2.57954e-08, No Iterations 1
smoothSolver:  Solving for Uz, Initial residual = 0.00375648, Final residual = 2.07789e-07, No Iterations 1
DICPCG:  Solving for p, Initial residual = 0.00350107, Final residual = 0.000106922, No Iterations 2
DICPCG:  Solving for p, Initial residual = 0.000106893, Final residual = 9.49341e-07, No Iterations 495
time step continuity errors : sum local = 3.06357e-09, global = 3.41578e-20, cumulative = 9.82983e-19
PIMPLE: iteration 10
smoothSolver:  Solving for Ux, Initial residual = 0.000489707, Final residual = 1.6257e-08, No Iterations 1
smoothSolver:  Solving for Uy, Initial residual = 0.000489707, Final residual = 1.63221e-08, No Iterations 1
smoothSolver:  Solving for Uz, Initial residual = 0.00359528, Final residual = 1.60437e-07, No Iterations 1
DICPCG:  Solving for p, Initial residual = 0.00198882, Final residual = 5.68675e-05, No Iterations 2
DICPCG:  Solving for p, Initial residual = 5.68719e-05, Final residual = 9.30063e-07, No Iterations 238
time step continuity errors : sum local = 3.43898e-09, global = 3.33791e-20, cumulative = 1.01636e-18
PIMPLE: iteration 11
smoothSolver:  Solving for Ux, Initial residual = 0.000318044, Final residual = 1.01698e-08, No Iterations 1
smoothSolver:  Solving for Uy, Initial residual = 0.000318043, Final residual = 1.02104e-08, No Iterations 1
smoothSolver:  Solving for Uz, Initial residual = 0.00250607, Final residual = 1.0349e-07, No Iterations 1
DICPCG:  Solving for p, Initial residual = 0.00106028, Final residual = 2.95929e-05, No Iterations 2
DICPCG:  Solving for p, Initial residual = 2.95981e-05, Final residual = 9.89556e-07, No Iterations 243
time step continuity errors : sum local = 3.21288e-09, global = 3.29641e-20, cumulative = 1.04933e-18
PIMPLE: iteration 12
smoothSolver:  Solving for Ux, Initial residual = 0.000201393, Final residual = 6.28815e-09, No Iterations 1
smoothSolver:  Solving for Uy, Initial residual = 0.000201393, Final residual = 6.31316e-09, No Iterations 1
smoothSolver:  Solving for Uz, Initial residual = 0.00140693, Final residual = 5.67284e-08, No Iterations 1
DICPCG:  Solving for p, Initial residual = 0.000588021, Final residual = 1.71963e-05, No Iterations 2
DICPCG:  Solving for p, Initial residual = 1.71993e-05, Final residual = 9.96317e-07, No Iterations 233
time step continuity errors : sum local = 3.4631e-09, global = 3.2467e-20, cumulative = 1.08179e-18
PIMPLE: iteration 13
smoothSolver:  Solving for Ux, Initial residual = 0.000123882, Final residual = 3.82524e-09, No Iterations 1
smoothSolver:  Solving for Uy, Initial residual = 0.000123881, Final residual = 3.84029e-09, No Iterations 1
smoothSolver:  Solving for Uz, Initial residual = 0.000608335, Final residual = 2.47963e-08, No Iterations 1
DICPCG:  Solving for p, Initial residual = 0.000357559, Final residual = 1.14314e-05, No Iterations 2
DICPCG:  Solving for p, Initial residual = 1.14331e-05, Final residual = 9.37439e-07, No Iterations 232
time step continuity errors : sum local = 3.34701e-09, global = 3.35406e-20, cumulative = 1.11533e-18
PIMPLE: iteration 14
smoothSolver:  Solving for Ux, Initial residual = 0.000185245, Final residual = 2.29376e-08, No Iterations 1
smoothSolver:  Solving for Uy, Initial residual = 0.000185244, Final residual = 2.29956e-08, No Iterations 1
smoothSolver:  Solving for Uz, Initial residual = 0.000418208, Final residual = 1.09525e-07, No Iterations 1
DICPCG:  Solving for p, Initial residual = 0.40251, Final residual = 0.00475427, No Iterations 2
DICPCG:  Solving for p, Initial residual = 0.007869, Final residual = 9.94855e-07, No Iterations 509
time step continuity errors : sum local = 3.47066e-09, global = 8.25959e-20, cumulative = 1.19793e-18
smoothSolver:  Solving for epsilon, Initial residual = 0.00122942, Final residual = 2.87368e-06, No Iterations 1
smoothSolver:  Solving for k, Initial residual = 0.0311059, Final residual = 1.71634e-06, No Iterations 2
PIMPLE: converged in 14 iterations
ExecutionTime = 53.71 s  ClockTime = 54 s

Courant Number mean: 0.00584462 max: 0.423583
deltaT = 0.0621915
Time = 0.223105

PIMPLE: iteration 1
smoothSolver:  Solving for Ux, Initial residual = 0.0175723, Final residual = 7.47728e-07, No Iterations 1
smoothSolver:  Solving for Uy, Initial residual = 0.0175726, Final residual = 7.57887e-07, No Iterations 1
smoothSolver:  Solving for Uz, Initial residual = 0.135608, Final residual = 5.87816e-06, No Iterations 1
DICPCG:  Solving for p, Initial residual = 0.355479, Final residual = 0.00447562, No Iterations 2
DICPCG:  Solving for p, Initial residual = 0.00340384, Final residual = 9.39372e-07, No Iterations 506
time step continuity errors : sum local = 3.60945e-09, global = 3.24384e-20, cumulative = 1.23037e-18
PIMPLE: iteration 2
smoothSolver:  Solving for Ux, Initial residual = 0.0127996, Final residual = 5.62827e-07, No Iterations 1
smoothSolver:  Solving for Uy, Initial residual = 0.0127997, Final residual = 5.69041e-07, No Iterations 1
smoothSolver:  Solving for Uz, Initial residual = 0.105284, Final residual = 4.78771e-06, No Iterations 1
DICPCG:  Solving for p, Initial residual = 0.180303, Final residual = 0.002397, No Iterations 2
DICPCG:  Solving for p, Initial residual = 0.00207337, Final residual = 8.70177e-07, No Iterations 497
time step continuity errors : sum local = 3.26266e-09, global = 3.61194e-20, cumulative = 1.26649e-18
PIMPLE: iteration 3
smoothSolver:  Solving for Ux, Initial residual = 0.00918333, Final residual = 4.15607e-07, No Iterations 1
smoothSolver:  Solving for Uy, Initial residual = 0.00918342, Final residual = 4.19653e-07, No Iterations 1
smoothSolver:  Solving for Uz, Initial residual = 0.06275, Final residual = 3.11556e-06, No Iterations 1
DICPCG:  Solving for p, Initial residual = 0.0949229, Final residual = 0.00131767, No Iterations 2
DICPCG:  Solving for p, Initial residual = 0.0012208, Final residual = 8.35361e-07, No Iterations 502
time step continuity errors : sum local = 3.07604e-09, global = 3.20858e-20, cumulative = 1.29857e-18
PIMPLE: iteration 4
smoothSolver:  Solving for Ux, Initial residual = 0.00617921, Final residual = 2.85761e-07, No Iterations 1
smoothSolver:  Solving for Uy, Initial residual = 0.00617925, Final residual = 2.8828e-07, No Iterations 1
smoothSolver:  Solving for Uz, Initial residual = 0.0292017, Final residual = 1.72605e-06, No Iterations 1
DICPCG:  Solving for p, Initial residual = 0.0502071, Final residual = 0.000746029, No Iterations 2
DICPCG:  Solving for p, Initial residual = 0.00071733, Final residual = 8.7507e-07, No Iterations 500
time step continuity errors : sum local = 3.18281e-09, global = 3.55569e-20, cumulative = 1.33413e-18
PIMPLE: iteration 5
smoothSolver:  Solving for Ux, Initial residual = 0.00402842, Final residual = 1.87697e-07, No Iterations 1
smoothSolver:  Solving for Uy, Initial residual = 0.00402843, Final residual = 1.8919e-07, No Iterations 1
smoothSolver:  Solving for Uz, Initial residual = 0.0118619, Final residual = 9.30278e-07, No Iterations 1
DICPCG:  Solving for p, Initial residual = 0.0270132, Final residual = 0.000428602, No Iterations 2
DICPCG:  Solving for p, Initial residual = 0.000420356, Final residual = 7.53426e-07, No Iterations 499
time step continuity errors : sum local = 2.71823e-09, global = 3.2469e-20, cumulative = 1.3666e-18
PIMPLE: iteration 6
smoothSolver:  Solving for Ux, Initial residual = 0.00262186, Final residual = 1.19908e-07, No Iterations 1
smoothSolver:  Solving for Uy, Initial residual = 0.00262187, Final residual = 1.20764e-07, No Iterations 1
smoothSolver:  Solving for Uz, Initial residual = 0.00606521, Final residual = 5.7911e-07, No Iterations 1
DICPCG:  Solving for p, Initial residual = 0.0150874, Final residual = 0.000247984, No Iterations 2
DICPCG:  Solving for p, Initial residual = 0.000245728, Final residual = 7.9655e-07, No Iterations 498
time step continuity errors : sum local = 2.85939e-09, global = 3.53509e-20, cumulative = 1.40195e-18
PIMPLE: iteration 7
smoothSolver:  Solving for Ux, Initial residual = 0.00169443, Final residual = 7.53584e-08, No Iterations 1
smoothSolver:  Solving for Uy, Initial residual = 0.00169444, Final residual = 7.58272e-08, No Iterations 1
smoothSolver:  Solving for Uz, Initial residual = 0.00507478, Final residual = 4.28049e-07, No Iterations 1
DICPCG:  Solving for p, Initial residual = 0.0083625, Final residual = 0.000147777, No Iterations 2
DICPCG:  Solving for p, Initial residual = 0.000147188, Final residual = 9.51264e-07, No Iterations 472
time step continuity errors : sum local = 3.41026e-09, global = 3.23858e-20, cumulative = 1.43434e-18
PIMPLE: iteration 8
smoothSolver:  Solving for Ux, Initial residual = 0.00107392, Final residual = 4.67005e-08, No Iterations 1
smoothSolver:  Solving for Uy, Initial residual = 0.00107393, Final residual = 4.69834e-08, No Iterations 1
smoothSolver:  Solving for Uz, Initial residual = 0.00485438, Final residual = 3.40555e-07, No Iterations 1
DICPCG:  Solving for p, Initial residual = 0.00500379, Final residual = 9.41001e-05, No Iterations 2
DICPCG:  Solving for p, Initial residual = 9.3956e-05, Final residual = 9.1844e-07, No Iterations 483
time step continuity errors : sum local = 3.28156e-09, global = 3.37093e-20, cumulative = 1.46805e-18
PIMPLE: iteration 9
smoothSolver:  Solving for Ux, Initial residual = 0.000695808, Final residual = 2.93551e-08, No Iterations 1
smoothSolver:  Solving for Uy, Initial residual = 0.000695809, Final residual = 2.94957e-08, No Iterations 1
smoothSolver:  Solving for Uz, Initial residual = 0.00414736, Final residual = 2.57408e-07, No Iterations 1
DICPCG:  Solving for p, Initial residual = 0.00303111, Final residual = 6.05848e-05, No Iterations 2
DICPCG:  Solving for p, Initial residual = 6.05585e-05, Final residual = 9.35075e-07, No Iterations 239
time step continuity errors : sum local = 3.94376e-09, global = 3.46043e-20, cumulative = 1.50265e-18
PIMPLE: iteration 10
smoothSolver:  Solving for Ux, Initial residual = 0.000455687, Final residual = 1.84995e-08, No Iterations 1
smoothSolver:  Solving for Uy, Initial residual = 0.000455686, Final residual = 1.85767e-08, No Iterations 1
smoothSolver:  Solving for Uz, Initial residual = 0.00295434, Final residual = 1.72613e-07, No Iterations 1
DICPCG:  Solving for p, Initial residual = 0.0017381, Final residual = 3.50815e-05, No Iterations 2
DICPCG:  Solving for p, Initial residual = 3.50818e-05, Final residual = 9.52679e-07, No Iterations 10
time step continuity errors : sum local = 3.66751e-09, global = 3.34894e-20, cumulative = 1.53614e-18
PIMPLE: iteration 11
smoothSolver:  Solving for Ux, Initial residual = 0.000293143, Final residual = 1.15347e-08, No Iterations 1
smoothSolver:  Solving for Uy, Initial residual = 0.000293142, Final residual = 1.15781e-08, No Iterations 1
smoothSolver:  Solving for Uz, Initial residual = 0.00178956, Final residual = 1.00487e-07, No Iterations 1
DICPCG:  Solving for p, Initial residual = 0.000961269, Final residual = 1.85995e-05, No Iterations 2
DICPCG:  Solving for p, Initial residual = 1.86023e-05, Final residual = 9.36195e-07, No Iterations 6
time step continuity errors : sum local = 3.62888e-09, global = 3.56093e-20, cumulative = 1.57175e-18
PIMPLE: iteration 12
smoothSolver:  Solving for Ux, Initial residual = 0.000183467, Final residual = 7.08907e-09, No Iterations 1
smoothSolver:  Solving for Uy, Initial residual = 0.000183467, Final residual = 7.11506e-09, No Iterations 1
smoothSolver:  Solving for Uz, Initial residual = 0.00107859, Final residual = 5.81786e-08, No Iterations 1
DICPCG:  Solving for p, Initial residual = 0.000563693, Final residual = 1.00264e-05, No Iterations 2
DICPCG:  Solving for p, Initial residual = 1.00281e-05, Final residual = 9.72427e-07, No Iterations 235
time step continuity errors : sum local = 3.47436e-09, global = 3.39506e-20, cumulative = 1.6057e-18
PIMPLE: iteration 13
smoothSolver:  Solving for Ux, Initial residual = 0.000111637, Final residual = 4.28824e-09, No Iterations 1
smoothSolver:  Solving for Uy, Initial residual = 0.000111637, Final residual = 4.30348e-09, No Iterations 1
smoothSolver:  Solving for Uz, Initial residual = 0.000487245, Final residual = 2.64085e-08, No Iterations 1
DICPCG:  Solving for p, Initial residual = 0.000359265, Final residual = 6.01662e-06, No Iterations 2
DICPCG:  Solving for p, Initial residual = 6.01749e-06, Final residual = 9.79857e-07, No Iterations 228
time step continuity errors : sum local = 3.53491e-09, global = 3.21557e-20, cumulative = 1.63785e-18
PIMPLE: iteration 14
smoothSolver:  Solving for Ux, Initial residual = 0.000165991, Final residual = 2.59075e-08, No Iterations 1
smoothSolver:  Solving for Uy, Initial residual = 0.000165992, Final residual = 2.59667e-08, No Iterations 1
smoothSolver:  Solving for Uz, Initial residual = 0.000426895, Final residual = 1.52705e-07, No Iterations 1
DICPCG:  Solving for p, Initial residual = 0.416256, Final residual = 0.00496565, No Iterations 2
DICPCG:  Solving for p, Initial residual = 0.00839337, Final residual = 8.74414e-07, No Iterations 509
time step continuity errors : sum local = 3.27405e-09, global = 8.36643e-20, cumulative = 1.72152e-18
smoothSolver:  Solving for epsilon, Initial residual = 0.00134003, Final residual = 3.35536e-06, No Iterations 1
smoothSolver:  Solving for k, Initial residual = 0.0261098, Final residual = 8.74043e-07, No Iterations 2
PIMPLE: converged in 14 iterations
ExecutionTime = 60.7 s  ClockTime = 61 s

Courant Number mean: 0.00660896 max: 0.534765
deltaT = 0.0746298
Time = 0.297735

PIMPLE: iteration 1
smoothSolver:  Solving for Ux, Initial residual = 0.0146902, Final residual = 8.19177e-07, No Iterations 1
smoothSolver:  Solving for Uy, Initial residual = 0.0146903, Final residual = 8.2918e-07, No Iterations 1
smoothSolver:  Solving for Uz, Initial residual = 0.122527, Final residual = 7.16964e-06, No Iterations 1
DICPCG:  Solving for p, Initial residual = 0.36719, Final residual = 0.00451983, No Iterations 2
DICPCG:  Solving for p, Initial residual = 0.00339397, Final residual = 9.96059e-07, No Iterations 505
time step continuity errors : sum local = 4.2589e-09, global = 3.50148e-20, cumulative = 1.75653e-18
PIMPLE: iteration 2
smoothSolver:  Solving for Ux, Initial residual = 0.0112182, Final residual = 6.49221e-07, No Iterations 1
smoothSolver:  Solving for Uy, Initial residual = 0.0112184, Final residual = 6.55524e-07, No Iterations 1
smoothSolver:  Solving for Uz, Initial residual = 0.0868113, Final residual = 5.38426e-06, No Iterations 1
DICPCG:  Solving for p, Initial residual = 0.184334, Final residual = 0.00227588, No Iterations 2
DICPCG:  Solving for p, Initial residual = 0.00195509, Final residual = 7.95064e-07, No Iterations 504
time step continuity errors : sum local = 3.31689e-09, global = 3.15806e-20, cumulative = 1.78811e-18
PIMPLE: iteration 3
smoothSolver:  Solving for Ux, Initial residual = 0.00829532, Final residual = 4.89613e-07, No Iterations 1
smoothSolver:  Solving for Uy, Initial residual = 0.00829537, Final residual = 4.93871e-07, No Iterations 1
smoothSolver:  Solving for Uz, Initial residual = 0.0506438, Final residual = 3.48339e-06, No Iterations 1
DICPCG:  Solving for p, Initial residual = 0.0957143, Final residual = 0.00119749, No Iterations 2
DICPCG:  Solving for p, Initial residual = 0.00110533, Final residual = 8.28449e-07, No Iterations 501
time step continuity errors : sum local = 3.39256e-09, global = 3.50826e-20, cumulative = 1.8232e-18
PIMPLE: iteration 4
smoothSolver:  Solving for Ux, Initial residual = 0.00583291, Final residual = 3.43951e-07, No Iterations 1
smoothSolver:  Solving for Uy, Initial residual = 0.00583295, Final residual = 3.46783e-07, No Iterations 1
smoothSolver:  Solving for Uz, Initial residual = 0.0271594, Final residual = 2.09017e-06, No Iterations 1
DICPCG:  Solving for p, Initial residual = 0.0498109, Final residual = 0.000678404, No Iterations 2
DICPCG:  Solving for p, Initial residual = 0.000651004, Final residual = 8.87292e-07, No Iterations 499
time step continuity errors : sum local = 3.58743e-09, global = 3.44882e-20, cumulative = 1.85769e-18
PIMPLE: iteration 5
smoothSolver:  Solving for Ux, Initial residual = 0.00394793, Final residual = 2.28522e-07, No Iterations 1
smoothSolver:  Solving for Uy, Initial residual = 0.00394795, Final residual = 2.30249e-07, No Iterations 1
smoothSolver:  Solving for Uz, Initial residual = 0.0160146, Final residual = 1.30167e-06, No Iterations 1
DICPCG:  Solving for p, Initial residual = 0.0258522, Final residual = 0.000400853, No Iterations 2
DICPCG:  Solving for p, Initial residual = 0.000392727, Final residual = 7.52554e-07, No Iterations 499
time step continuity errors : sum local = 3.01737e-09, global = 3.41726e-20, cumulative = 1.89186e-18
PIMPLE: iteration 6
smoothSolver:  Solving for Ux, Initial residual = 0.00260363, Final residual = 1.46377e-07, No Iterations 1
smoothSolver:  Solving for Uy, Initial residual = 0.00260364, Final residual = 1.47341e-07, No Iterations 1
smoothSolver:  Solving for Uz, Initial residual = 0.0111946, Final residual = 8.81505e-07, No Iterations 1
DICPCG:  Solving for p, Initial residual = 0.0139948, Final residual = 0.000233163, No Iterations 2
DICPCG:  Solving for p, Initial residual = 0.000230915, Final residual = 8.74363e-07, No Iterations 496
time step continuity errors : sum local = 3.48764e-09, global = 3.45334e-20, cumulative = 1.92639e-18
PIMPLE: iteration 7
smoothSolver:  Solving for Ux, Initial residual = 0.00167628, Final residual = 9.15259e-08, No Iterations 1
smoothSolver:  Solving for Uy, Initial residual = 0.00167629, Final residual = 9.20806e-08, No Iterations 1
smoothSolver:  Solving for Uz, Initial residual = 0.00859469, Final residual = 6.3491e-07, No Iterations 1
DICPCG:  Solving for p, Initial residual = 0.00767608, Final residual = 0.000130811, No Iterations 2
DICPCG:  Solving for p, Initial residual = 0.000130256, Final residual = 8.77151e-07, No Iterations 468
time step continuity errors : sum local = 3.48874e-09, global = 3.52312e-20, cumulative = 1.96162e-18
PIMPLE: iteration 8
smoothSolver:  Solving for Ux, Initial residual = 0.00106074, Final residual = 5.65586e-08, No Iterations 1
smoothSolver:  Solving for Uy, Initial residual = 0.00106075, Final residual = 5.68856e-08, No Iterations 1
smoothSolver:  Solving for Uz, Initial residual = 0.00643863, Final residual = 4.59309e-07, No Iterations 1
DICPCG:  Solving for p, Initial residual = 0.00436572, Final residual = 7.35273e-05, No Iterations 2
DICPCG:  Solving for p, Initial residual = 7.34064e-05, Final residual = 9.88181e-07, No Iterations 238
time step continuity errors : sum local = 4.60358e-09, global = 3.37875e-20, cumulative = 1.99541e-18
PIMPLE: iteration 9
smoothSolver:  Solving for Ux, Initial residual = 0.000683277, Final residual = 3.54835e-08, No Iterations 1
smoothSolver:  Solving for Uy, Initial residual = 0.000683277, Final residual = 3.56498e-08, No Iterations 1
smoothSolver:  Solving for Uz, Initial residual = 0.00434826, Final residual = 3.09247e-07, No Iterations 1
DICPCG:  Solving for p, Initial residual = 0.00266297, Final residual = 4.35614e-05, No Iterations 2
DICPCG:  Solving for p, Initial residual = 4.35408e-05, Final residual = 9.89856e-07, No Iterations 17
time step continuity errors : sum local = 4.21675e-09, global = 3.32601e-20, cumulative = 2.02867e-18
PIMPLE: iteration 10
smoothSolver:  Solving for Ux, Initial residual = 0.000440535, Final residual = 2.21749e-08, No Iterations 1
smoothSolver:  Solving for Uy, Initial residual = 0.000440535, Final residual = 2.22705e-08, No Iterations 1
smoothSolver:  Solving for Uz, Initial residual = 0.0025911, Final residual = 1.87357e-07, No Iterations 1
DICPCG:  Solving for p, Initial residual = 0.00155614, Final residual = 2.6211e-05, No Iterations 2
DICPCG:  Solving for p, Initial residual = 2.62111e-05, Final residual = 8.78587e-07, No Iterations 241
time step continuity errors : sum local = 3.59582e-09, global = 3.31933e-20, cumulative = 2.06186e-18
PIMPLE: iteration 11
smoothSolver:  Solving for Ux, Initial residual = 0.000279916, Final residual = 1.36982e-08, No Iterations 1
smoothSolver:  Solving for Uy, Initial residual = 0.000279916, Final residual = 1.37487e-08, No Iterations 1
smoothSolver:  Solving for Uz, Initial residual = 0.00148217, Final residual = 1.07717e-07, No Iterations 1
DICPCG:  Solving for p, Initial residual = 0.000892899, Final residual = 1.49424e-05, No Iterations 2
DICPCG:  Solving for p, Initial residual = 1.49448e-05, Final residual = 8.35088e-07, No Iterations 237
time step continuity errors : sum local = 3.31441e-09, global = 3.44818e-20, cumulative = 2.09635e-18
PIMPLE: iteration 12
smoothSolver:  Solving for Ux, Initial residual = 0.000173425, Final residual = 8.34912e-09, No Iterations 1
smoothSolver:  Solving for Uy, Initial residual = 0.000173425, Final residual = 8.37773e-09, No Iterations 1
smoothSolver:  Solving for Uz, Initial residual = 0.000778782, Final residual = 5.74338e-08, No Iterations 1
DICPCG:  Solving for p, Initial residual = 0.000548669, Final residual = 8.6083e-06, No Iterations 2
DICPCG:  Solving for p, Initial residual = 8.60987e-06, Final residual = 8.75304e-07, No Iterations 6
time step continuity errors : sum local = 3.59642e-09, global = 3.40348e-20, cumulative = 2.13038e-18
PIMPLE: iteration 13
smoothSolver:  Solving for Ux, Initial residual = 0.000263203, Final residual = 5.2197e-08, No Iterations 1
smoothSolver:  Solving for Uy, Initial residual = 0.000263202, Final residual = 5.22952e-08, No Iterations 1
smoothSolver:  Solving for Uz, Initial residual = 0.00119855, Final residual = 4.71402e-07, No Iterations 1
DICPCG:  Solving for p, Initial residual = 0.425911, Final residual = 0.00513185, No Iterations 2
DICPCG:  Solving for p, Initial residual = 0.00879826, Final residual = 8.92931e-07, No Iterations 510
time step continuity errors : sum local = 3.64069e-09, global = 8.56216e-20, cumulative = 2.216e-18
smoothSolver:  Solving for epsilon, Initial residual = 0.00144332, Final residual = 3.6546e-06, No Iterations 1
smoothSolver:  Solving for k, Initial residual = 0.0240859, Final residual = 7.3991e-07, No Iterations 2
PIMPLE: converged in 13 iterations
ExecutionTime = 67.11 s  ClockTime = 67 s

Courant Number mean: 0.00747325 max: 0.697146
deltaT = 0.0895558
Time = 0.38729

PIMPLE: iteration 1
smoothSolver:  Solving for Ux, Initial residual = 0.013289, Final residual = 9.85182e-07, No Iterations 1
smoothSolver:  Solving for Uy, Initial residual = 0.0132891, Final residual = 9.96222e-07, No Iterations 1
smoothSolver:  Solving for Uz, Initial residual = 0.125152, Final residual = 9.72998e-06, No Iterations 1
DICPCG:  Solving for p, Initial residual = 0.376008, Final residual = 0.00468739, No Iterations 2
DICPCG:  Solving for p, Initial residual = 0.0034909, Final residual = 9.55873e-07, No Iterations 506
time step continuity errors : sum local = 4.55973e-09, global = 3.64087e-20, cumulative = 2.25241e-18
PIMPLE: iteration 2
smoothSolver:  Solving for Ux, Initial residual = 0.0104782, Final residual = 7.95214e-07, No Iterations 1
smoothSolver:  Solving for Uy, Initial residual = 0.0104783, Final residual = 8.02307e-07, No Iterations 1
smoothSolver:  Solving for Uz, Initial residual = 0.0707223, Final residual = 5.82667e-06, No Iterations 1
DICPCG:  Solving for p, Initial residual = 0.187524, Final residual = 0.00231147, No Iterations 2
DICPCG:  Solving for p, Initial residual = 0.00197666, Final residual = 8.4268e-07, No Iterations 504
time step continuity errors : sum local = 3.91696e-09, global = 3.16923e-20, cumulative = 2.2841e-18
PIMPLE: iteration 3
smoothSolver:  Solving for Ux, Initial residual = 0.00806194, Final residual = 6.07241e-07, No Iterations 1
smoothSolver:  Solving for Uy, Initial residual = 0.00806197, Final residual = 6.12289e-07, No Iterations 1
smoothSolver:  Solving for Uz, Initial residual = 0.0345488, Final residual = 3.17974e-06, No Iterations 1
DICPCG:  Solving for p, Initial residual = 0.0965718, Final residual = 0.00118742, No Iterations 2
DICPCG:  Solving for p, Initial residual = 0.00109309, Final residual = 9.64929e-07, No Iterations 485
time step continuity errors : sum local = 4.4001e-09, global = 3.53301e-20, cumulative = 2.31943e-18
PIMPLE: iteration 4
smoothSolver:  Solving for Ux, Initial residual = 0.00579928, Final residual = 4.29432e-07, No Iterations 1
smoothSolver:  Solving for Uy, Initial residual = 0.00579931, Final residual = 4.32731e-07, No Iterations 1
smoothSolver:  Solving for Uz, Initial residual = 0.0196215, Final residual = 1.93734e-06, No Iterations 1
DICPCG:  Solving for p, Initial residual = 0.0496674, Final residual = 0.000671082, No Iterations 2
DICPCG:  Solving for p, Initial residual = 0.000642919, Final residual = 7.40328e-07, No Iterations 500
time step continuity errors : sum local = 3.3311e-09, global = 3.1535e-20, cumulative = 2.35097e-18
PIMPLE: iteration 5
smoothSolver:  Solving for Ux, Initial residual = 0.00397258, Final residual = 2.86569e-07, No Iterations 1
smoothSolver:  Solving for Uy, Initial residual = 0.0039726, Final residual = 2.88535e-07, No Iterations 1
smoothSolver:  Solving for Uz, Initial residual = 0.0141373, Final residual = 1.35383e-06, No Iterations 1
DICPCG:  Solving for p, Initial residual = 0.0254078, Final residual = 0.000403741, No Iterations 2
DICPCG:  Solving for p, Initial residual = 0.000395261, Final residual = 9.03878e-07, No Iterations 482
time step continuity errors : sum local = 4.03679e-09, global = 3.38418e-20, cumulative = 2.38481e-18
PIMPLE: iteration 6
smoothSolver:  Solving for Ux, Initial residual = 0.00261703, Final residual = 1.83848e-07, No Iterations 1
smoothSolver:  Solving for Uy, Initial residual = 0.00261704, Final residual = 1.84964e-07, No Iterations 1
smoothSolver:  Solving for Uz, Initial residual = 0.0113724, Final residual = 1.01133e-06, No Iterations 1
DICPCG:  Solving for p, Initial residual = 0.0131794, Final residual = 0.000238771, No Iterations 2
DICPCG:  Solving for p, Initial residual = 0.000236404, Final residual = 9.25726e-07, No Iterations 496
time step continuity errors : sum local = 4.10664e-09, global = 3.55277e-20, cumulative = 2.42034e-18
PIMPLE: iteration 7
smoothSolver:  Solving for Ux, Initial residual = 0.00168033, Final residual = 1.14864e-07, No Iterations 1
smoothSolver:  Solving for Uy, Initial residual = 0.00168034, Final residual = 1.15527e-07, No Iterations 1
smoothSolver:  Solving for Uz, Initial residual = 0.00888674, Final residual = 7.52594e-07, No Iterations 1
DICPCG:  Solving for p, Initial residual = 0.00709076, Final residual = 0.000132503, No Iterations 2
DICPCG:  Solving for p, Initial residual = 0.000131933, Final residual = 8.47359e-07, No Iterations 492
time step continuity errors : sum local = 3.74587e-09, global = 3.54456e-20, cumulative = 2.45578e-18
PIMPLE: iteration 8
smoothSolver:  Solving for Ux, Initial residual = 0.00106614, Final residual = 7.11465e-08, No Iterations 1
smoothSolver:  Solving for Uy, Initial residual = 0.00106615, Final residual = 7.15165e-08, No Iterations 1
smoothSolver:  Solving for Uz, Initial residual = 0.00631591, Final residual = 5.2887e-07, No Iterations 1
DICPCG:  Solving for p, Initial residual = 0.00387526, Final residual = 7.0342e-05, No Iterations 2
DICPCG:  Solving for p, Initial residual = 7.02288e-05, Final residual = 9.62698e-07, No Iterations 232
time step continuity errors : sum local = 4.5688e-09, global = 3.53644e-20, cumulative = 2.49115e-18
PIMPLE: iteration 9
smoothSolver:  Solving for Ux, Initial residual = 0.000682177, Final residual = 4.43919e-08, No Iterations 1
smoothSolver:  Solving for Uy, Initial residual = 0.000682177, Final residual = 4.45838e-08, No Iterations 1
smoothSolver:  Solving for Uz, Initial residual = 0.00396451, Final residual = 3.37866e-07, No Iterations 1
DICPCG:  Solving for p, Initial residual = 0.00237563, Final residual = 3.92257e-05, No Iterations 2
DICPCG:  Solving for p, Initial residual = 3.92098e-05, Final residual = 8.13543e-07, No Iterations 243
time step continuity errors : sum local = 3.75573e-09, global = 3.51109e-20, cumulative = 2.52626e-18
PIMPLE: iteration 10
smoothSolver:  Solving for Ux, Initial residual = 0.000433923, Final residual = 2.74144e-08, No Iterations 1
smoothSolver:  Solving for Uy, Initial residual = 0.000433924, Final residual = 2.75281e-08, No Iterations 1
smoothSolver:  Solving for Uz, Initial residual = 0.00222973, Final residual = 1.96857e-07, No Iterations 1
DICPCG:  Solving for p, Initial residual = 0.00141519, Final residual = 2.31751e-05, No Iterations 2
DICPCG:  Solving for p, Initial residual = 2.31767e-05, Final residual = 9.77708e-07, No Iterations 238
time step continuity errors : sum local = 4.71193e-09, global = 3.40911e-20, cumulative = 2.56035e-18
PIMPLE: iteration 11
smoothSolver:  Solving for Ux, Initial residual = 0.000273006, Final residual = 1.67772e-08, No Iterations 1
smoothSolver:  Solving for Uy, Initial residual = 0.000273006, Final residual = 1.68404e-08, No Iterations 1
smoothSolver:  Solving for Uz, Initial residual = 0.00112219, Final residual = 1.03965e-07, No Iterations 1
DICPCG:  Solving for p, Initial residual = 0.000846745, Final residual = 1.33598e-05, No Iterations 2
DICPCG:  Solving for p, Initial residual = 1.33627e-05, Final residual = 8.94643e-07, No Iterations 235
time step continuity errors : sum local = 4.40693e-09, global = 3.42992e-20, cumulative = 2.59465e-18
PIMPLE: iteration 12
smoothSolver:  Solving for Ux, Initial residual = 0.000167649, Final residual = 1.01286e-08, No Iterations 1
smoothSolver:  Solving for Uy, Initial residual = 0.000167648, Final residual = 1.01611e-08, No Iterations 1
smoothSolver:  Solving for Uz, Initial residual = 0.000500839, Final residual = 5.02409e-08, No Iterations 1
DICPCG:  Solving for p, Initial residual = 0.000542199, Final residual = 8.06972e-06, No Iterations 2
DICPCG:  Solving for p, Initial residual = 8.07153e-06, Final residual = 8.73652e-07, No Iterations 6
time step continuity errors : sum local = 4.17022e-09, global = 3.51482e-20, cumulative = 2.6298e-18
PIMPLE: iteration 13
smoothSolver:  Solving for Ux, Initial residual = 0.000252782, Final residual = 6.42719e-08, No Iterations 1
smoothSolver:  Solving for Uy, Initial residual = 0.000252782, Final residual = 6.43827e-08, No Iterations 1
smoothSolver:  Solving for Uz, Initial residual = 0.00077039, Final residual = 4.38725e-07, No Iterations 1
DICPCG:  Solving for p, Initial residual = 0.432879, Final residual = 0.00525952, No Iterations 2
DICPCG:  Solving for p, Initial residual = 0.00911946, Final residual = 9.28445e-07, No Iterations 513
time step continuity errors : sum local = 4.14104e-09, global = 8.43395e-20, cumulative = 2.71414e-18
smoothSolver:  Solving for epsilon, Initial residual = 0.001544, Final residual = 4.05135e-06, No Iterations 1
smoothSolver:  Solving for k, Initial residual = 0.023243, Final residual = 9.58925e-07, No Iterations 2
PIMPLE: converged in 13 iterations
ExecutionTime = 73.92 s  ClockTime = 74 s

Courant Number mean: 0.00842087 max: 0.942657
deltaT = 0.107173
Time = 0.494464

PIMPLE: iteration 1
smoothSolver:  Solving for Ux, Initial residual = 0.0131354, Final residual = 1.27373e-06, No Iterations 1
smoothSolver:  Solving for Uy, Initial residual = 0.0131355, Final residual = 1.28661e-06, No Iterations 1
smoothSolver:  Solving for Uz, Initial residual = 0.118135, Final residual = 2.16573e-08, No Iterations 2
DICPCG:  Solving for p, Initial residual = 0.384095, Final residual = 0.00482128, No Iterations 2
DICPCG:  Solving for p, Initial residual = 0.00356617, Final residual = 9.55092e-07, No Iterations 507
time step continuity errors : sum local = 5.05714e-09, global = 3.50786e-20, cumulative = 2.74921e-18
PIMPLE: iteration 2
smoothSolver:  Solving for Ux, Initial residual = 0.0104531, Final residual = 1.0189e-06, No Iterations 1
smoothSolver:  Solving for Uy, Initial residual = 0.0104531, Final residual = 1.02712e-06, No Iterations 1
smoothSolver:  Solving for Uz, Initial residual = 0.0508935, Final residual = 5.5642e-06, No Iterations 1
DICPCG:  Solving for p, Initial residual = 0.19056, Final residual = 0.0023503, No Iterations 2
DICPCG:  Solving for p, Initial residual = 0.00200253, Final residual = 7.62479e-07, No Iterations 503
time step continuity errors : sum local = 3.92797e-09, global = 3.36271e-20, cumulative = 2.78284e-18
PIMPLE: iteration 3
smoothSolver:  Solving for Ux, Initial residual = 0.00817326, Final residual = 7.76889e-07, No Iterations 1
smoothSolver:  Solving for Uy, Initial residual = 0.00817331, Final residual = 7.82747e-07, No Iterations 1
smoothSolver:  Solving for Uz, Initial residual = 0.0232052, Final residual = 2.79908e-06, No Iterations 1
DICPCG:  Solving for p, Initial residual = 0.0974573, Final residual = 0.0011931, No Iterations 2
[...]
time step continuity errors : sum local = 4.80785e-10, global = 2.96436e-21, cumulative = 2.34161e-17
PIMPLE: iteration 5
smoothSolver:  Solving for Ux, Initial residual = 0.0070957, Final residual = 1.6027e-06, No Iterations 2
smoothSolver:  Solving for Uy, Initial residual = 0.00709565, Final residual = 1.60889e-06, No Iterations 2
smoothSolver:  Solving for Uz, Initial residual = 0.000842769, Final residual = 3.2213e-07, No Iterations 2
DICPCG:  Solving for p, Initial residual = 0.0390267, Final residual = 0.00161393, No Iterations 7
DICPCG:  Solving for p, Initial residual = 0.00166611, Final residual = 8.40375e-07, No Iterations 513
time step continuity errors : sum local = 4.33216e-10, global = 3.05237e-21, cumulative = 2.34191e-17
PIMPLE: iteration 6
smoothSolver:  Solving for Ux, Initial residual = 0.00471973, Final residual = 1.15302e-06, No Iterations 2
smoothSolver:  Solving for Uy, Initial residual = 0.00471971, Final residual = 1.15729e-06, No Iterations 2
smoothSolver:  Solving for Uz, Initial residual = 0.000593082, Final residual = 8.9369e-06, No Iterations 1
DICPCG:  Solving for p, Initial residual = 0.0346447, Final residual = 0.00151462, No Iterations 6
DICPCG:  Solving for p, Initial residual = 0.00156162, Final residual = 9.43359e-07, No Iterations 474
time step continuity errors : sum local = 5.34559e-10, global = 2.48255e-21, cumulative = 2.34216e-17
PIMPLE: iteration 7
smoothSolver:  Solving for Ux, Initial residual = 0.0031417, Final residual = 8.08542e-07, No Iterations 2
smoothSolver:  Solving for Uy, Initial residual = 0.00314171, Final residual = 8.11568e-07, No Iterations 2
smoothSolver:  Solving for Uz, Initial residual = 0.000428468, Final residual = 6.56324e-06, No Iterations 1
DICPCG:  Solving for p, Initial residual = 0.0258623, Final residual = 0.00108638, No Iterations 5
DICPCG:  Solving for p, Initial residual = 0.00111192, Final residual = 9.68229e-07, No Iterations 508
time step continuity errors : sum local = 4.8336e-10, global = 2.57331e-21, cumulative = 2.34242e-17
PIMPLE: iteration 8
smoothSolver:  Solving for Ux, Initial residual = 0.00210829, Final residual = 5.69283e-07, No Iterations 2
smoothSolver:  Solving for Uy, Initial residual = 0.0021083, Final residual = 5.71426e-07, No Iterations 2
smoothSolver:  Solving for Uz, Initial residual = 0.000312942, Final residual = 4.78541e-06, No Iterations 1
DICPCG:  Solving for p, Initial residual = 0.0174366, Final residual = 0.000796227, No Iterations 3
DICPCG:  Solving for p, Initial residual = 0.000808276, Final residual = 8.98868e-07, No Iterations 503
time step continuity errors : sum local = 4.47663e-10, global = 4.28992e-21, cumulative = 2.34285e-17
PIMPLE: iteration 9
smoothSolver:  Solving for Ux, Initial residual = 0.00142568, Final residual = 4.10434e-07, No Iterations 2
smoothSolver:  Solving for Uy, Initial residual = 0.00142569, Final residual = 4.118e-07, No Iterations 2
smoothSolver:  Solving for Uz, Initial residual = 0.000229845, Final residual = 3.51582e-06, No Iterations 1
DICPCG:  Solving for p, Initial residual = 0.0111433, Final residual = 0.000381005, No Iterations 3
DICPCG:  Solving for p, Initial residual = 0.000384435, Final residual = 9.70788e-07, No Iterations 501
time step continuity errors : sum local = 4.83507e-10, global = 5.11463e-21, cumulative = 2.34336e-17
PIMPLE: iteration 10
smoothSolver:  Solving for Ux, Initial residual = 0.00098162, Final residual = 3.04993e-07, No Iterations 2
smoothSolver:  Solving for Uy, Initial residual = 0.000981631, Final residual = 3.05797e-07, No Iterations 2
smoothSolver:  Solving for Uz, Initial residual = 0.000171727, Final residual = 2.64238e-06, No Iterations 1
DICPCG:  Solving for p, Initial residual = 0.0069013, Final residual = 0.000261268, No Iterations 3
DICPCG:  Solving for p, Initial residual = 0.000262585, Final residual = 9.04096e-07, No Iterations 500
time step continuity errors : sum local = 4.50699e-10, global = 2.10562e-21, cumulative = 2.34357e-17
PIMPLE: iteration 11
smoothSolver:  Solving for Ux, Initial residual = 0.00236259, Final residual = 4.33765e-06, No Iterations 4
smoothSolver:  Solving for Uy, Initial residual = 0.0023626, Final residual = 4.33745e-06, No Iterations 4
smoothSolver:  Solving for Uz, Initial residual = 0.000487516, Final residual = 5.61817e-06, No Iterations 3
DICPCG:  Solving for p, Initial residual = 0.463067, Final residual = 0.014031, No Iterations 2
DICPCG:  Solving for p, Initial residual = 0.0252046, Final residual = 9.4626e-07, No Iterations 519
time step continuity errors : sum local = 4.5718e-10, global = 1.03436e-20, cumulative = 2.3446e-17
smoothSolver:  Solving for epsilon, Initial residual = 0.167435, Final residual = 5.22348e-06, No Iterations 5
smoothSolver:  Solving for k, Initial residual = 0.0868126, Final residual = 3.03456e-06, No Iterations 6
PIMPLE: converged in 11 iterations
ExecutionTime = 300.73 s  ClockTime = 301 s

Courant Number mean: 0.00323958 max: 1.06621
deltaT = 5.33333
Time = 54.6667

PIMPLE: iteration 1
smoothSolver:  Solving for Ux, Initial residual = 0.0247308, Final residual = 3.3675e-06, No Iterations 2
smoothSolver:  Solving for Uy, Initial residual = 0.0247308, Final residual = 3.38967e-06, No Iterations 2
smoothSolver:  Solving for Uz, Initial residual = 0.00275642, Final residual = 6.00883e-07, No Iterations 2
DICPCG:  Solving for p, Initial residual = 0.494578, Final residual = 0.024616, No Iterations 2
DICPCG:  Solving for p, Initial residual = 0.0165837, Final residual = 9.49554e-07, No Iterations 518
time step continuity errors : sum local = 5.33437e-10, global = 3.16649e-21, cumulative = 2.34492e-17
PIMPLE: iteration 2
smoothSolver:  Solving for Ux, Initial residual = 0.017996, Final residual = 2.75462e-06, No Iterations 2
smoothSolver:  Solving for Uy, Initial residual = 0.017996, Final residual = 2.77057e-06, No Iterations 2
smoothSolver:  Solving for Uz, Initial residual = 0.0020675, Final residual = 4.93804e-07, No Iterations 2
DICPCG:  Solving for p, Initial residual = 0.196035, Final residual = 0.00898377, No Iterations 3
DICPCG:  Solving for p, Initial residual = 0.00755658, Final residual = 8.83406e-07, No Iterations 517
time step continuity errors : sum local = 4.40233e-10, global = 2.9944e-21, cumulative = 2.34522e-17
PIMPLE: iteration 3
smoothSolver:  Solving for Ux, Initial residual = 0.0130723, Final residual = 2.32923e-06, No Iterations 2
smoothSolver:  Solving for Uy, Initial residual = 0.0130722, Final residual = 2.33999e-06, No Iterations 2
smoothSolver:  Solving for Uz, Initial residual = 0.00155644, Final residual = 4.35017e-07, No Iterations 2
DICPCG:  Solving for p, Initial residual = 0.0687925, Final residual = 0.00259895, No Iterations 3
DICPCG:  Solving for p, Initial residual = 0.00246495, Final residual = 9.21895e-07, No Iterations 511
time step continuity errors : sum local = 4.1445e-10, global = 4.08297e-21, cumulative = 2.34563e-17
PIMPLE: iteration 4
smoothSolver:  Solving for Ux, Initial residual = 0.00916808, Final residual = 1.88375e-06, No Iterations 2
smoothSolver:  Solving for Uy, Initial residual = 0.00916804, Final residual = 1.89147e-06, No Iterations 2
smoothSolver:  Solving for Uz, Initial residual = 0.0011256, Final residual = 3.66056e-07, No Iterations 2
DICPCG:  Solving for p, Initial residual = 0.0321052, Final residual = 0.00119836, No Iterations 7
DICPCG:  Solving for p, Initial residual = 0.0012044, Final residual = 8.44242e-07, No Iterations 513
time step continuity errors : sum local = 3.52343e-10, global = -4.6816e-22, cumulative = 2.34558e-17
PIMPLE: iteration 5
smoothSolver:  Solving for Ux, Initial residual = 0.00623931, Final residual = 1.431e-06, No Iterations 2
smoothSolver:  Solving for Uy, Initial residual = 0.0062393, Final residual = 1.43631e-06, No Iterations 2
smoothSolver:  Solving for Uz, Initial residual = 0.000794445, Final residual = 2.87494e-07, No Iterations 2
DICPCG:  Solving for p, Initial residual = 0.0354045, Final residual = 0.00157242, No Iterations 7
DICPCG:  Solving for p, Initial residual = 0.00161351, Final residual = 9.74598e-07, No Iterations 513
time step continuity errors : sum local = 3.88782e-10, global = -1.63169e-22, cumulative = 2.34556e-17
PIMPLE: iteration 6
smoothSolver:  Solving for Ux, Initial residual = 0.00418284, Final residual = 1.03454e-06, No Iterations 2
smoothSolver:  Solving for Uy, Initial residual = 0.00418285, Final residual = 1.03811e-06, No Iterations 2
smoothSolver:  Solving for Uz, Initial residual = 0.000559969, Final residual = 8.19817e-06, No Iterations 1
DICPCG:  Solving for p, Initial residual = 0.0327601, Final residual = 0.00158437, No Iterations 6
DICPCG:  Solving for p, Initial residual = 0.00162757, Final residual = 9.31462e-07, No Iterations 475
time step continuity errors : sum local = 4.14256e-10, global = 2.1513e-21, cumulative = 2.34578e-17
PIMPLE: iteration 7
smoothSolver:  Solving for Ux, Initial residual = 0.002814, Final residual = 7.28746e-07, No Iterations 2
smoothSolver:  Solving for Uy, Initial residual = 0.00281401, Final residual = 7.31311e-07, No Iterations 2
smoothSolver:  Solving for Uz, Initial residual = 0.000402682, Final residual = 5.97865e-06, No Iterations 1
DICPCG:  Solving for p, Initial residual = 0.0248703, Final residual = 0.00116413, No Iterations 5
DICPCG:  Solving for p, Initial residual = 0.00118888, Final residual = 9.49915e-07, No Iterations 510
time step continuity errors : sum local = 3.66582e-10, global = 2.94281e-22, cumulative = 2.34581e-17
PIMPLE: iteration 8
smoothSolver:  Solving for Ux, Initial residual = 0.00190396, Final residual = 5.13742e-07, No Iterations 2
smoothSolver:  Solving for Uy, Initial residual = 0.00190398, Final residual = 5.15556e-07, No Iterations 2
smoothSolver:  Solving for Uz, Initial residual = 0.000292549, Final residual = 4.35048e-06, No Iterations 1
DICPCG:  Solving for p, Initial residual = 0.0170946, Final residual = 0.000838174, No Iterations 3
DICPCG:  Solving for p, Initial residual = 0.000850029, Final residual = 7.31184e-07, No Iterations 504
time step continuity errors : sum local = 2.81316e-10, global = 2.87928e-21, cumulative = 2.3461e-17
PIMPLE: iteration 9
smoothSolver:  Solving for Ux, Initial residual = 0.00129361, Final residual = 3.69619e-07, No Iterations 2
smoothSolver:  Solving for Uy, Initial residual = 0.00129362, Final residual = 3.70825e-07, No Iterations 2
smoothSolver:  Solving for Uz, Initial residual = 0.00021368, Final residual = 3.19928e-06, No Iterations 1
DICPCG:  Solving for p, Initial residual = 0.0110514, Final residual = 0.000388286, No Iterations 3
DICPCG:  Solving for p, Initial residual = 0.000391626, Final residual = 7.96603e-07, No Iterations 502
time step continuity errors : sum local = 3.06401e-10, global = 1.79375e-21, cumulative = 2.34628e-17
PIMPLE: iteration 10
smoothSolver:  Solving for Ux, Initial residual = 0.000889913, Final residual = 2.73122e-07, No Iterations 2
smoothSolver:  Solving for Uy, Initial residual = 0.000889922, Final residual = 2.73865e-07, No Iterations 2
smoothSolver:  Solving for Uz, Initial residual = 0.000158643, Final residual = 2.40463e-06, No Iterations 1
DICPCG:  Solving for p, Initial residual = 0.00696672, Final residual = 0.000274236, No Iterations 3
DICPCG:  Solving for p, Initial residual = 0.000275575, Final residual = 8.23724e-07, No Iterations 480
time step continuity errors : sum local = 3.17598e-10, global = 3.98882e-21, cumulative = 2.34667e-17
PIMPLE: iteration 11
smoothSolver:  Solving for Ux, Initial residual = 0.00216705, Final residual = 3.57804e-06, No Iterations 4
smoothSolver:  Solving for Uy, Initial residual = 0.0021671, Final residual = 3.57782e-06, No Iterations 4
smoothSolver:  Solving for Uz, Initial residual = 0.000447308, Final residual = 4.67111e-06, No Iterations 3
DICPCG:  Solving for p, Initial residual = 0.470608, Final residual = 0.0153955, No Iterations 2
DICPCG:  Solving for p, Initial residual = 0.027813, Final residual = 9.31341e-07, No Iterations 520
time step continuity errors : sum local = 3.44649e-10, global = 6.20439e-21, cumulative = 2.3473e-17
smoothSolver:  Solving for epsilon, Initial residual = 0.179597, Final residual = 4.8386e-06, No Iterations 5
smoothSolver:  Solving for k, Initial residual = 0.0809397, Final residual = 2.39741e-06, No Iterations 6
PIMPLE: converged in 11 iterations
ExecutionTime = 313.17 s  ClockTime = 313 s

Courant Number mean: 0.00295102 max: 0.936504
deltaT = 5.33333
Time = 60

PIMPLE: iteration 1
smoothSolver:  Solving for Ux, Initial residual = 0.0213194, Final residual = 3.06478e-06, No Iterations 2
smoothSolver:  Solving for Uy, Initial residual = 0.0213195, Final residual = 3.08336e-06, No Iterations 2
smoothSolver:  Solving for Uz, Initial residual = 0.00259408, Final residual = 5.46892e-07, No Iterations 2
DICPCG:  Solving for p, Initial residual = 0.512163, Final residual = 0.0161258, No Iterations 3
DICPCG:  Solving for p, Initial residual = 0.0108063, Final residual = 8.79163e-07, No Iterations 519
time step continuity errors : sum local = 3.8787e-10, global = 6.79224e-22, cumulative = 2.34736e-17
PIMPLE: iteration 2
smoothSolver:  Solving for Ux, Initial residual = 0.0155265, Final residual = 2.49011e-06, No Iterations 2
smoothSolver:  Solving for Uy, Initial residual = 0.0155267, Final residual = 2.5034e-06, No Iterations 2
smoothSolver:  Solving for Uz, Initial residual = 0.00194993, Final residual = 4.58751e-07, No Iterations 2
DICPCG:  Solving for p, Initial residual = 0.206651, Final residual = 0.00896976, No Iterations 3
DICPCG:  Solving for p, Initial residual = 0.00748397, Final residual = 8.92941e-07, No Iterations 518
time step continuity errors : sum local = 3.52214e-10, global = 2.70355e-21, cumulative = 2.34763e-17
PIMPLE: iteration 3
smoothSolver:  Solving for Ux, Initial residual = 0.0113618, Final residual = 2.09285e-06, No Iterations 2
smoothSolver:  Solving for Uy, Initial residual = 0.0113619, Final residual = 2.10242e-06, No Iterations 2
smoothSolver:  Solving for Uz, Initial residual = 0.00147436, Final residual = 4.03526e-07, No Iterations 2
DICPCG:  Solving for p, Initial residual = 0.0750786, Final residual = 0.00264788, No Iterations 3
DICPCG:  Solving for p, Initial residual = 0.00249683, Final residual = 9.63443e-07, No Iterations 510
time step continuity errors : sum local = 3.43481e-10, global = 2.80372e-21, cumulative = 2.34791e-17
PIMPLE: iteration 4
smoothSolver:  Solving for Ux, Initial residual = 0.00802115, Final residual = 1.68661e-06, No Iterations 2
smoothSolver:  Solving for Uy, Initial residual = 0.00802128, Final residual = 1.69334e-06, No Iterations 2
smoothSolver:  Solving for Uz, Initial residual = 0.0010759, Final residual = 3.36532e-07, No Iterations 2
DICPCG:  Solving for p, Initial residual = 0.034899, Final residual = 0.00129563, No Iterations 7
DICPCG:  Solving for p, Initial residual = 0.00129701, Final residual = 9.50434e-07, No Iterations 513
time step continuity errors : sum local = 3.14777e-10, global = 2.69942e-21, cumulative = 2.34818e-17
PIMPLE: iteration 5
smoothSolver:  Solving for Ux, Initial residual = 0.00549507, Final residual = 1.27912e-06, No Iterations 2
smoothSolver:  Solving for Uy, Initial residual = 0.00549515, Final residual = 1.28364e-06, No Iterations 2
smoothSolver:  Solving for Uz, Initial residual = 0.000758867, Final residual = 2.61109e-07, No Iterations 2
DICPCG:  Solving for p, Initial residual = 0.0343842, Final residual = 0.00159095, No Iterations 7
DICPCG:  Solving for p, Initial residual = 0.00162831, Final residual = 9.01479e-07, No Iterations 514
time step continuity errors : sum local = 2.8546e-10, global = 2.3569e-21, cumulative = 2.34842e-17
PIMPLE: iteration 6
smoothSolver:  Solving for Ux, Initial residual = 0.00370723, Final residual = 9.25573e-07, No Iterations 2
smoothSolver:  Solving for Uy, Initial residual = 0.00370727, Final residual = 9.2851e-07, No Iterations 2
smoothSolver:  Solving for Uz, Initial residual = 0.00053436, Final residual = 7.60006e-06, No Iterations 1
DICPCG:  Solving for p, Initial residual = 0.032197, Final residual = 0.00135348, No Iterations 7
DICPCG:  Solving for p, Initial residual = 0.00138825, Final residual = 8.20639e-07, No Iterations 473
time step continuity errors : sum local = 2.80138e-10, global = 1.41523e-22, cumulative = 2.34843e-17
PIMPLE: iteration 7
smoothSolver:  Solving for Ux, Initial residual = 0.00251169, Final residual = 6.53537e-07, No Iterations 2
smoothSolver:  Solving for Uy, Initial residual = 0.00251172, Final residual = 6.55601e-07, No Iterations 2
smoothSolver:  Solving for Uz, Initial residual = 0.000382688, Final residual = 5.48641e-06, No Iterations 1
DICPCG:  Solving for p, Initial residual = 0.0245373, Final residual = 0.00120128, No Iterations 5
DICPCG:  Solving for p, Initial residual = 0.00122536, Final residual = 9.40151e-07, No Iterations 511
time step continuity errors : sum local = 2.88263e-10, global = 4.84813e-22, cumulative = 2.34848e-17
PIMPLE: iteration 8
smoothSolver:  Solving for Ux, Initial residual = 0.00171266, Final residual = 4.61652e-07, No Iterations 2
smoothSolver:  Solving for Uy, Initial residual = 0.00171268, Final residual = 4.63102e-07, No Iterations 2
smoothSolver:  Solving for Uz, Initial residual = 0.000276995, Final residual = 3.98163e-06, No Iterations 1
DICPCG:  Solving for p, Initial residual = 0.0168779, Final residual = 0.000539365, No Iterations 4
DICPCG:  Solving for p, Initial residual = 0.000546569, Final residual = 8.06034e-07, No Iterations 503
time step continuity errors : sum local = 2.46443e-10, global = 3.32747e-22, cumulative = 2.34852e-17
PIMPLE: iteration 9
smoothSolver:  Solving for Ux, Initial residual = 0.00117268, Final residual = 3.31978e-07, No Iterations 2
smoothSolver:  Solving for Uy, Initial residual = 0.00117271, Final residual = 3.3296e-07, No Iterations 2
smoothSolver:  Solving for Uz, Initial residual = 0.000201933, Final residual = 2.93647e-06, No Iterations 1
DICPCG:  Solving for p, Initial residual = 0.0110311, Final residual = 0.000402487, No Iterations 3
DICPCG:  Solving for p, Initial residual = 0.000405699, Final residual = 8.72582e-07, No Iterations 502
time step continuity errors : sum local = 2.6679e-10, global = 2.74377e-21, cumulative = 2.34879e-17
PIMPLE: iteration 10
smoothSolver:  Solving for Ux, Initial residual = 0.000808974, Final residual = 2.44539e-07, No Iterations 2
smoothSolver:  Solving for Uy, Initial residual = 0.000808992, Final residual = 2.4516e-07, No Iterations 2
smoothSolver:  Solving for Uz, Initial residual = 0.000149022, Final residual = 2.21437e-06, No Iterations 1
DICPCG:  Solving for p, Initial residual = 0.00699252, Final residual = 0.00028291, No Iterations 3
DICPCG:  Solving for p, Initial residual = 0.000284181, Final residual = 9.99361e-07, No Iterations 480
time step continuity errors : sum local = 3.06131e-10, global = 1.37485e-21, cumulative = 2.34893e-17
PIMPLE: iteration 11
smoothSolver:  Solving for Ux, Initial residual = 0.00197628, Final residual = 2.94323e-06, No Iterations 4
smoothSolver:  Solving for Uy, Initial residual = 0.00197632, Final residual = 2.94297e-06, No Iterations 4
smoothSolver:  Solving for Uz, Initial residual = 0.000415959, Final residual = 3.95198e-06, No Iterations 3
DICPCG:  Solving for p, Initial residual = 0.475376, Final residual = 0.0165957, No Iterations 2
DICPCG:  Solving for p, Initial residual = 0.0300032, Final residual = 8.7755e-07, No Iterations 521
time step continuity errors : sum local = 2.57765e-10, global = 3.98163e-21, cumulative = 2.34933e-17
smoothSolver:  Solving for epsilon, Initial residual = 0.190654, Final residual = 4.4719e-06, No Iterations 5
smoothSolver:  Solving for k, Initial residual = 0.0760113, Final residual = 9.27873e-06, No Iterations 5
PIMPLE: converged in 11 iterations
ExecutionTime = 326.19 s  ClockTime = 326 s

End

Finalising parallel run
