/*---------------------------------------------------------------------------*\
| =========                 |                                                 |
| \\      /  F ield         | OpenFOAM: The Open Source CFD Toolbox           |
|  \\    /   O peration     | Version:  2206                                  |
|   \\  /    A nd           | Website:  www.openfoam.com                      |
|    \\/     M anipulation  |                                                 |
\*---------------------------------------------------------------------------*/
Build  : _76d719d1-20220624 OPENFOAM=2206 version=2206
Arch   : "LSB;label=32;scalar=64"
Exec   : icoFoam
Date   : Nov 01 2023
Time   : 08:40:45
Host   : MSI
PID    : 5300
I/O    : uncollated
Case   : /home/baqer/Git-hub-OpenFoam/snappy-pipe-2/pipe-flow-2/pipe-2
nProcs : 1
trapFpe: Floating point exception trapping enabled (FOAM_SIGFPE).
fileModificationChecking : Monitoring run-time modified files using timeStampMaster (fileModificationSkew 5, maxFileModificationPolls 20)
allowSystemOperations : Allowing user-supplied system call operations

// * * * * * * * * * * * * * * * * * * * * * * * * * * * * * * * * * * * * * //
Create time

Create mesh for time = 0


PISO: Operating solver in PISO mode

Reading transportProperties

Reading field p

Reading field U

Reading/calculating face flux field phi


Starting time loop

Time = 0.5

Courant Number mean: 0.000328557 max: 0.0114032
smoothSolver:  Solving for Ux, Initial residual = 0, Final residual = 0, No Iterations 0
smoothSolver:  Solving for Uy, Initial residual = 0, Final residual = 0, No Iterations 0
smoothSolver:  Solving for Uz, Initial residual = 1, Final residual = 8.18558e-07, No Iterations 2
DICPCG:  Solving for p, Initial residual = 1, Final residual = 0.0482384, No Iterations 577
time step continuity errors : sum local = 1.29971e-09, global = -2.06381e-11, cumulative = -2.06381e-11
DICPCG:  Solving for p, Initial residual = 0.000269536, Final residual = 9.38432e-07, No Iterations 605
time step continuity errors : sum local = 7.08549e-12, global = -3.91487e-14, cumulative = -2.06773e-11
ExecutionTime = 27.76 s  ClockTime = 28 s

Time = 1

Courant Number mean: 0.000328936 max: 0.0119915
smoothSolver:  Solving for Ux, Initial residual = 0.332859, Final residual = 8.49877e-08, No Iterations 2
smoothSolver:  Solving for Uy, Initial residual = 0.332834, Final residual = 8.49822e-08, No Iterations 2
smoothSolver:  Solving for Uz, Initial residual = 0.235371, Final residual = 6.87759e-06, No Iterations 1
DICPCG:  Solving for p, Initial residual = 0.00611039, Final residual = 0.000297674, No Iterations 583
time step continuity errors : sum local = 2.24523e-09, global = -3.14247e-11, cumulative = -5.21019e-11
DICPCG:  Solving for p, Initial residual = 0.00142221, Final residual = 9.37531e-07, No Iterations 654
time step continuity errors : sum local = 1.75364e-12, global = 5.41811e-15, cumulative = -5.20965e-11
ExecutionTime = 60.56 s  ClockTime = 61 s

Time = 1.5

Courant Number mean: 0.000328924 max: 0.0129268
smoothSolver:  Solving for Ux, Initial residual = 0.0973005, Final residual = 7.40011e-08, No Iterations 2
smoothSolver:  Solving for Uy, Initial residual = 0.0972826, Final residual = 7.39963e-08, No Iterations 2
smoothSolver:  Solving for Uz, Initial residual = 0.0734567, Final residual = 4.29388e-06, No Iterations 1
DICPCG:  Solving for p, Initial residual = 0.00568856, Final residual = 0.000273159, No Iterations 41
time step continuity errors : sum local = 5.10867e-10, global = 7.2819e-11, cumulative = 2.07224e-11
DICPCG:  Solving for p, Initial residual = 0.000303227, Final residual = 9.51818e-07, No Iterations 610
time step continuity errors : sum local = 1.77292e-12, global = -2.32405e-14, cumulative = 2.06992e-11
ExecutionTime = 76.32 s  ClockTime = 77 s

Time = 2

Courant Number mean: 0.000328917 max: 0.0138498
smoothSolver:  Solving for Ux, Initial residual = 0.0798482, Final residual = 5.4403e-08, No Iterations 2
smoothSolver:  Solving for Uy, Initial residual = 0.0798314, Final residual = 5.44088e-08, No Iterations 2
smoothSolver:  Solving for Uz, Initial residual = 0.0551389, Final residual = 2.93884e-06, No Iterations 1
DICPCG:  Solving for p, Initial residual = 0.00240649, Final residual = 0.000120222, No Iterations 71
time step continuity errors : sum local = 2.21631e-10, global = 9.39604e-12, cumulative = 3.00952e-11
DICPCG:  Solving for p, Initial residual = 0.000136354, Final residual = 9.92569e-07, No Iterations 599
time step continuity errors : sum local = 1.8278e-12, global = -4.40503e-14, cumulative = 3.00512e-11
ExecutionTime = 92.94 s  ClockTime = 93 s

Time = 2.5

Courant Number mean: 0.000328914 max: 0.0146588
smoothSolver:  Solving for Ux, Initial residual = 0.0673879, Final residual = 4.24066e-08, No Iterations 2
smoothSolver:  Solving for Uy, Initial residual = 0.0673933, Final residual = 4.24098e-08, No Iterations 2
smoothSolver:  Solving for Uz, Initial residual = 0.0445154, Final residual = 2.20972e-06, No Iterations 1
DICPCG:  Solving for p, Initial residual = 0.00165399, Final residual = 7.79516e-05, No Iterations 77
time step continuity errors : sum local = 1.42238e-10, global = 6.50692e-12, cumulative = 3.65581e-11
DICPCG:  Solving for p, Initial residual = 8.94952e-05, Final residual = 9.98462e-07, No Iterations 593
time step continuity errors : sum local = 1.82076e-12, global = -1.80026e-14, cumulative = 3.65401e-11
ExecutionTime = 107.75 s  ClockTime = 108 s

Time = 3

Courant Number mean: 0.000328913 max: 0.0153662
smoothSolver:  Solving for Ux, Initial residual = 0.0578495, Final residual = 3.45223e-08, No Iterations 2
smoothSolver:  Solving for Uy, Initial residual = 0.0578476, Final residual = 3.45245e-08, No Iterations 2
smoothSolver:  Solving for Uz, Initial residual = 0.0375108, Final residual = 1.75489e-06, No Iterations 1
DICPCG:  Solving for p, Initial residual = 0.00150069, Final residual = 6.612e-05, No Iterations 77
time step continuity errors : sum local = 1.19544e-10, global = 5.77075e-12, cumulative = 4.23109e-11
DICPCG:  Solving for p, Initial residual = 7.50092e-05, Final residual = 9.78889e-07, No Iterations 592
time step continuity errors : sum local = 1.769e-12, global = -1.26411e-14, cumulative = 4.22982e-11
ExecutionTime = 123.87 s  ClockTime = 124 s

Time = 3.5

Courant Number mean: 0.000328912 max: 0.0159936
smoothSolver:  Solving for Ux, Initial residual = 0.0503846, Final residual = 9.41535e-06, No Iterations 1
smoothSolver:  Solving for Uy, Initial residual = 0.0503809, Final residual = 9.4159e-06, No Iterations 1
smoothSolver:  Solving for Uz, Initial residual = 0.0325175, Final residual = 1.44596e-06, No Iterations 1
DICPCG:  Solving for p, Initial residual = 0.00127926, Final residual = 5.72874e-05, No Iterations 77
time step continuity errors : sum local = 1.02667e-10, global = 5.1033e-12, cumulative = 4.74015e-11
DICPCG:  Solving for p, Initial residual = 6.4147e-05, Final residual = 9.79303e-07, No Iterations 591
time step continuity errors : sum local = 1.75445e-12, global = -1.09795e-14, cumulative = 4.73905e-11
ExecutionTime = 140.55 s  ClockTime = 141 s

Time = 4

Courant Number mean: 0.000328911 max: 0.0165543
smoothSolver:  Solving for Ux, Initial residual = 0.0445607, Final residual = 8.02649e-06, No Iterations 1
smoothSolver:  Solving for Uy, Initial residual = 0.0445579, Final residual = 8.02688e-06, No Iterations 1
smoothSolver:  Solving for Uz, Initial residual = 0.0287662, Final residual = 1.22345e-06, No Iterations 1
DICPCG:  Solving for p, Initial residual = 0.00115551, Final residual = 5.20511e-05, No Iterations 77
time step continuity errors : sum local = 9.25458e-11, global = 4.64203e-12, cumulative = 5.20326e-11
DICPCG:  Solving for p, Initial residual = 5.78275e-05, Final residual = 9.56547e-07, No Iterations 513
time step continuity errors : sum local = 1.70035e-12, global = -2.89384e-14, cumulative = 5.20036e-11
ExecutionTime = 155.99 s  ClockTime = 156 s

Time = 4.5

Courant Number mean: 0.00032891 max: 0.0170602
smoothSolver:  Solving for Ux, Initial residual = 0.0398675, Final residual = 6.94194e-06, No Iterations 1
smoothSolver:  Solving for Uy, Initial residual = 0.0398737, Final residual = 6.94222e-06, No Iterations 1
smoothSolver:  Solving for Uz, Initial residual = 0.0258306, Final residual = 1.05613e-06, No Iterations 1
DICPCG:  Solving for p, Initial residual = 0.0011101, Final residual = 5.47528e-05, No Iterations 75
time step continuity errors : sum local = 9.66145e-11, global = 4.20727e-12, cumulative = 5.62109e-11
DICPCG:  Solving for p, Initial residual = 5.97179e-05, Final residual = 9.91234e-07, No Iterations 585
time step continuity errors : sum local = 1.74876e-12, global = -2.20926e-15, cumulative = 5.62087e-11
ExecutionTime = 171.3 s  ClockTime = 172 s

Time = 5

Courant Number mean: 0.00032891 max: 0.0175185
smoothSolver:  Solving for Ux, Initial residual = 0.0360041, Final residual = 6.07579e-06, No Iterations 1
smoothSolver:  Solving for Uy, Initial residual = 0.0360024, Final residual = 6.07615e-06, No Iterations 1
smoothSolver:  Solving for Uz, Initial residual = 0.0234624, Final residual = 9.26252e-07, No Iterations 1
DICPCG:  Solving for p, Initial residual = 0.00100184, Final residual = 4.89142e-05, No Iterations 74
time step continuity errors : sum local = 8.56798e-11, global = 3.90601e-12, cumulative = 6.01147e-11
DICPCG:  Solving for p, Initial residual = 5.32008e-05, Final residual = 9.65633e-07, No Iterations 581
time step continuity errors : sum local = 1.69128e-12, global = 3.98236e-15, cumulative = 6.01187e-11
ExecutionTime = 188.26 s  ClockTime = 189 s

Time = 5.5

Courant Number mean: 0.000328908 max: 0.0179363
smoothSolver:  Solving for Ux, Initial residual = 0.0328467, Final residual = 5.37348e-06, No Iterations 1
smoothSolver:  Solving for Uy, Initial residual = 0.0328494, Final residual = 5.37375e-06, No Iterations 1
smoothSolver:  Solving for Uz, Initial residual = 0.0215094, Final residual = 8.22752e-07, No Iterations 1
DICPCG:  Solving for p, Initial residual = 0.000887707, Final residual = 4.347e-05, No Iterations 74
time step continuity errors : sum local = 7.56309e-11, global = 3.55233e-12, cumulative = 6.3671e-11
DICPCG:  Solving for p, Initial residual = 4.71507e-05, Final residual = 9.44332e-07, No Iterations 580
time step continuity errors : sum local = 1.64307e-12, global = -2.90028e-16, cumulative = 6.36707e-11
ExecutionTime = 202.44 s  ClockTime = 203 s

Time = 6

Courant Number mean: 0.000328907 max: 0.0183185
smoothSolver:  Solving for Ux, Initial residual = 0.0302222, Final residual = 4.79882e-06, No Iterations 1
smoothSolver:  Solving for Uy, Initial residual = 0.0302245, Final residual = 4.79902e-06, No Iterations 1
smoothSolver:  Solving for Uz, Initial residual = 0.0198667, Final residual = 7.38574e-07, No Iterations 1
DICPCG:  Solving for p, Initial residual = 0.000832582, Final residual = 4.1335e-05, No Iterations 73
time step continuity errors : sum local = 7.14634e-11, global = 3.42428e-12, cumulative = 6.7095e-11
DICPCG:  Solving for p, Initial residual = 4.44931e-05, Final residual = 9.43346e-07, No Iterations 584
time step continuity errors : sum local = 1.63113e-12, global = -5.80909e-15, cumulative = 6.70892e-11
ExecutionTime = 220.6 s  ClockTime = 221 s

Time = 6.5

Courant Number mean: 0.000328904 max: 0.0186663
smoothSolver:  Solving for Ux, Initial residual = 0.0279746, Final residual = 4.32131e-06, No Iterations 1
smoothSolver:  Solving for Uy, Initial residual = 0.0279784, Final residual = 4.32145e-06, No Iterations 1
smoothSolver:  Solving for Uz, Initial residual = 0.0184625, Final residual = 6.68867e-07, No Iterations 1
DICPCG:  Solving for p, Initial residual = 0.000791812, Final residual = 3.93106e-05, No Iterations 72
time step continuity errors : sum local = 6.75492e-11, global = 3.32103e-12, cumulative = 7.04102e-11
DICPCG:  Solving for p, Initial residual = 4.23511e-05, Final residual = 9.58208e-07, No Iterations 587
time step continuity errors : sum local = 1.64678e-12, global = 1.46671e-14, cumulative = 7.04249e-11
ExecutionTime = 236.25 s  ClockTime = 236 s

Time = 7

Courant Number mean: 0.000328902 max: 0.0189852
smoothSolver:  Solving for Ux, Initial residual = 0.0260636, Final residual = 3.91995e-06, No Iterations 1
smoothSolver:  Solving for Uy, Initial residual = 0.026067, Final residual = 3.92008e-06, No Iterations 1
smoothSolver:  Solving for Uz, Initial residual = 0.0172467, Final residual = 6.10296e-07, No Iterations 1
DICPCG:  Solving for p, Initial residual = 0.000758216, Final residual = 3.68171e-05, No Iterations 72
time step continuity errors : sum local = 6.28873e-11, global = 3.11595e-12, cumulative = 7.35408e-11
DICPCG:  Solving for p, Initial residual = 3.96038e-05, Final residual = 9.43581e-07, No Iterations 586
time step continuity errors : sum local = 1.61196e-12, global = 1.52063e-14, cumulative = 7.3556e-11
ExecutionTime = 253.29 s  ClockTime = 254 s

Time = 7.5

Courant Number mean: 0.000328899 max: 0.0192797
smoothSolver:  Solving for Ux, Initial residual = 0.0244042, Final residual = 3.5781e-06, No Iterations 1
smoothSolver:  Solving for Uy, Initial residual = 0.0244083, Final residual = 3.57822e-06, No Iterations 1
smoothSolver:  Solving for Uz, Initial residual = 0.0161877, Final residual = 5.60453e-07, No Iterations 1
DICPCG:  Solving for p, Initial residual = 0.000737764, Final residual = 3.68126e-05, No Iterations 69
time step continuity errors : sum local = 6.25111e-11, global = 3.17348e-12, cumulative = 7.67295e-11
DICPCG:  Solving for p, Initial residual = 3.92512e-05, Final residual = 9.47612e-07, No Iterations 587
time step continuity errors : sum local = 1.60939e-12, global = -2.10729e-14, cumulative = 7.67084e-11
ExecutionTime = 269.27 s  ClockTime = 270 s

Time = 8

Courant Number mean: 0.000328895 max: 0.0195524
smoothSolver:  Solving for Ux, Initial residual = 0.0229427, Final residual = 3.28437e-06, No Iterations 1
smoothSolver:  Solving for Uy, Initial residual = 0.0229466, Final residual = 3.28446e-06, No Iterations 1
smoothSolver:  Solving for Uz, Initial residual = 0.0152545, Final residual = 5.17567e-07, No Iterations 1
DICPCG:  Solving for p, Initial residual = 0.000667113, Final residual = 3.1905e-05, No Iterations 71
time step continuity errors : sum local = 5.38647e-11, global = 2.82871e-12, cumulative = 7.95372e-11
DICPCG:  Solving for p, Initial residual = 3.41459e-05, Final residual = 9.2344e-07, No Iterations 585
time step continuity errors : sum local = 1.55923e-12, global = 4.94248e-15, cumulative = 7.95421e-11
ExecutionTime = 286.49 s  ClockTime = 287 s

Time = 8.5

Courant Number mean: 0.000328891 max: 0.0197872
smoothSolver:  Solving for Ux, Initial residual = 0.0216281, Final residual = 3.03078e-06, No Iterations 1
smoothSolver:  Solving for Uy, Initial residual = 0.0216297, Final residual = 3.03087e-06, No Iterations 1
smoothSolver:  Solving for Uz, Initial residual = 0.0144225, Final residual = 4.80293e-07, No Iterations 1
DICPCG:  Solving for p, Initial residual = 0.000666817, Final residual = 3.18424e-05, No Iterations 71
time step continuity errors : sum local = 5.3441e-11, global = 2.74495e-12, cumulative = 8.2287e-11
DICPCG:  Solving for p, Initial residual = 3.39743e-05, Final residual = 9.73634e-07, No Iterations 584
time step continuity errors : sum local = 1.63411e-12, global = 6.07433e-16, cumulative = 8.22877e-11
ExecutionTime = 302.19 s  ClockTime = 302 s

Time = 9

Courant Number mean: 0.000328887 max: 0.0199997
smoothSolver:  Solving for Ux, Initial residual = 0.0204016, Final residual = 2.80886e-06, No Iterations 1
smoothSolver:  Solving for Uy, Initial residual = 0.020404, Final residual = 2.80896e-06, No Iterations 1
smoothSolver:  Solving for Uz, Initial residual = 0.0136827, Final residual = 4.47637e-07, No Iterations 1
DICPCG:  Solving for p, Initial residual = 0.000584001, Final residual = 2.77388e-05, No Iterations 71
time step continuity errors : sum local = 4.62688e-11, global = 2.56148e-12, cumulative = 8.48491e-11
DICPCG:  Solving for p, Initial residual = 2.97095e-05, Final residual = 9.2514e-07, No Iterations 583
time step continuity errors : sum local = 1.5432e-12, global = -1.77223e-15, cumulative = 8.48474e-11
ExecutionTime = 319.41 s  ClockTime = 320 s

Time = 9.5

Courant Number mean: 0.000328883 max: 0.0201953
smoothSolver:  Solving for Ux, Initial residual = 0.0193301, Final residual = 2.61401e-06, No Iterations 1
smoothSolver:  Solving for Uy, Initial residual = 0.0193329, Final residual = 2.61409e-06, No Iterations 1
smoothSolver:  Solving for Uz, Initial residual = 0.0130197, Final residual = 4.18788e-07, No Iterations 1
DICPCG:  Solving for p, Initial residual = 0.000561752, Final residual = 2.76473e-05, No Iterations 70
time step continuity errors : sum local = 4.58431e-11, global = 2.47724e-12, cumulative = 8.73246e-11
DICPCG:  Solving for p, Initial residual = 2.9411e-05, Final residual = 9.48852e-07, No Iterations 584
time step continuity errors : sum local = 1.57335e-12, global = -1.98122e-14, cumulative = 8.73048e-11
ExecutionTime = 335.92 s  ClockTime = 336 s

Time = 10

Courant Number mean: 0.000328879 max: 0.020414
smoothSolver:  Solving for Ux, Initial residual = 0.0183748, Final residual = 2.44135e-06, No Iterations 1
smoothSolver:  Solving for Uy, Initial residual = 0.0183764, Final residual = 2.44143e-06, No Iterations 1
smoothSolver:  Solving for Uz, Initial residual = 0.0124176, Final residual = 3.9314e-07, No Iterations 1
DICPCG:  Solving for p, Initial residual = 0.000642982, Final residual = 3.07722e-05, No Iterations 67
time step continuity errors : sum local = 5.07144e-11, global = 2.9337e-12, cumulative = 9.02385e-11
DICPCG:  Solving for p, Initial residual = 3.25886e-05, Final residual = 9.59398e-07, No Iterations 550
time step continuity errors : sum local = 1.58092e-12, global = -6.19356e-16, cumulative = 9.02379e-11
ExecutionTime = 352.13 s  ClockTime = 352 s

Time = 10.5

Courant Number mean: 0.000328875 max: 0.0206319
smoothSolver:  Solving for Ux, Initial residual = 0.0175103, Final residual = 2.28726e-06, No Iterations 1
smoothSolver:  Solving for Uy, Initial residual = 0.0175115, Final residual = 2.28733e-06, No Iterations 1
smoothSolver:  Solving for Uz, Initial residual = 0.0118663, Final residual = 3.70204e-07, No Iterations 1
DICPCG:  Solving for p, Initial residual = 0.000540025, Final residual = 2.57863e-05, No Iterations 68
time step continuity errors : sum local = 4.22205e-11, global = 2.54717e-12, cumulative = 9.2785e-11
DICPCG:  Solving for p, Initial residual = 2.75476e-05, Final residual = 9.63922e-07, No Iterations 583
time step continuity errors : sum local = 1.57809e-12, global = -1.76392e-14, cumulative = 9.27674e-11
ExecutionTime = 367.36 s  ClockTime = 368 s

Time = 11

Courant Number mean: 0.000328871 max: 0.0208321
smoothSolver:  Solving for Ux, Initial residual = 0.0167069, Final residual = 2.14971e-06, No Iterations 1
smoothSolver:  Solving for Uy, Initial residual = 0.0167081, Final residual = 2.14977e-06, No Iterations 1
smoothSolver:  Solving for Uz, Initial residual = 0.0113638, Final residual = 3.49566e-07, No Iterations 1
DICPCG:  Solving for p, Initial residual = 0.000473783, Final residual = 2.32878e-05, No Iterations 68
time step continuity errors : sum local = 3.79024e-11, global = 2.41441e-12, cumulative = 9.51818e-11
DICPCG:  Solving for p, Initial residual = 2.49428e-05, Final residual = 9.59559e-07, No Iterations 580
time step continuity errors : sum local = 1.56163e-12, global = -3.40123e-14, cumulative = 9.51478e-11
ExecutionTime = 384.72 s  ClockTime = 385 s

Time = 11.5

Courant Number mean: 0.000328866 max: 0.021016
smoothSolver:  Solving for Ux, Initial residual = 0.0159598, Final residual = 2.02555e-06, No Iterations 1
smoothSolver:  Solving for Uy, Initial residual = 0.0159608, Final residual = 2.02562e-06, No Iterations 1
smoothSolver:  Solving for Uz, Initial residual = 0.0109067, Final residual = 3.30926e-07, No Iterations 1
DICPCG:  Solving for p, Initial residual = 0.000442318, Final residual = 2.17424e-05, No Iterations 68
time step continuity errors : sum local = 3.51794e-11, global = 2.32223e-12, cumulative = 9.747e-11
DICPCG:  Solving for p, Initial residual = 2.33148e-05, Final residual = 9.69506e-07, No Iterations 580
time step continuity errors : sum local = 1.56856e-12, global = -3.14235e-14, cumulative = 9.74386e-11
ExecutionTime = 399.83 s  ClockTime = 400 s

Time = 12

Courant Number mean: 0.000328861 max: 0.0211837
smoothSolver:  Solving for Ux, Initial residual = 0.0152611, Final residual = 1.91344e-06, No Iterations 1
smoothSolver:  Solving for Uy, Initial residual = 0.0152621, Final residual = 1.9135e-06, No Iterations 1
smoothSolver:  Solving for Uz, Initial residual = 0.0104847, Final residual = 3.13991e-07, No Iterations 1
DICPCG:  Solving for p, Initial residual = 0.000438046, Final residual = 2.14817e-05, No Iterations 67
time step continuity errors : sum local = 3.45532e-11, global = 2.37922e-12, cumulative = 9.98178e-11
DICPCG:  Solving for p, Initial residual = 2.29637e-05, Final residual = 9.21745e-07, No Iterations 581
time step continuity errors : sum local = 1.48248e-12, global = -2.00143e-14, cumulative = 9.97978e-11
ExecutionTime = 416.36 s  ClockTime = 417 s

Time = 12.5

Courant Number mean: 0.000328856 max: 0.0213364
smoothSolver:  Solving for Ux, Initial residual = 0.0146242, Final residual = 1.81167e-06, No Iterations 1
smoothSolver:  Solving for Uy, Initial residual = 0.0146241, Final residual = 1.81172e-06, No Iterations 1
smoothSolver:  Solving for Uz, Initial residual = 0.0100935, Final residual = 2.98547e-07, No Iterations 1
DICPCG:  Solving for p, Initial residual = 0.000390912, Final residual = 1.89911e-05, No Iterations 68
time step continuity errors : sum local = 3.03676e-11, global = 2.13826e-12, cumulative = 1.01936e-10
DICPCG:  Solving for p, Initial residual = 2.04319e-05, Final residual = 9.80239e-07, No Iterations 578
time step continuity errors : sum local = 1.56733e-12, global = -2.84583e-14, cumulative = 1.01908e-10
ExecutionTime = 431.95 s  ClockTime = 432 s

Time = 13

Courant Number mean: 0.000328851 max: 0.0214747
smoothSolver:  Solving for Ux, Initial residual = 0.0140352, Final residual = 1.71897e-06, No Iterations 1
smoothSolver:  Solving for Uy, Initial residual = 0.0140351, Final residual = 1.71901e-06, No Iterations 1
smoothSolver:  Solving for Uz, Initial residual = 0.00973038, Final residual = 2.84415e-07, No Iterations 1
DICPCG:  Solving for p, Initial residual = 0.000352639, Final residual = 1.73145e-05, No Iterations 71
time step continuity errors : sum local = 2.7529e-11, global = 1.81996e-12, cumulative = 1.03728e-10
DICPCG:  Solving for p, Initial residual = 1.8583e-05, Final residual = 9.80458e-07, No Iterations 571
time step continuity errors : sum local = 1.55877e-12, global = -2.23712e-15, cumulative = 1.03725e-10
ExecutionTime = 448.74 s  ClockTime = 449 s

Time = 13.5

Courant Number mean: 0.000328845 max: 0.0215997
smoothSolver:  Solving for Ux, Initial residual = 0.013485, Final residual = 1.63428e-06, No Iterations 1
smoothSolver:  Solving for Uy, Initial residual = 0.0134849, Final residual = 1.63433e-06, No Iterations 1
smoothSolver:  Solving for Uz, Initial residual = 0.00939193, Final residual = 2.71432e-07, No Iterations 1
DICPCG:  Solving for p, Initial residual = 0.000332619, Final residual = 1.66002e-05, No Iterations 69
time step continuity errors : sum local = 2.62448e-11, global = 1.87333e-12, cumulative = 1.05599e-10
DICPCG:  Solving for p, Initial residual = 1.78523e-05, Final residual = 9.58356e-07, No Iterations 578
time step continuity errors : sum local = 1.51506e-12, global = -2.80088e-14, cumulative = 1.05571e-10
ExecutionTime = 464.21 s  ClockTime = 464 s

Time = 14

Courant Number mean: 0.000328839 max: 0.0217118
smoothSolver:  Solving for Ux, Initial residual = 0.0129695, Final residual = 1.55672e-06, No Iterations 1
smoothSolver:  Solving for Uy, Initial residual = 0.0129691, Final residual = 1.55676e-06, No Iterations 1
smoothSolver:  Solving for Uz, Initial residual = 0.00907571, Final residual = 2.5947e-07, No Iterations 1
DICPCG:  Solving for p, Initial residual = 0.000308724, Final residual = 1.50803e-05, No Iterations 73
time step continuity errors : sum local = 2.37087e-11, global = 1.62811e-12, cumulative = 1.07199e-10
DICPCG:  Solving for p, Initial residual = 1.63092e-05, Final residual = 9.96769e-07, No Iterations 572
time step continuity errors : sum local = 1.56698e-12, global = -3.29358e-15, cumulative = 1.07195e-10
ExecutionTime = 481.52 s  ClockTime = 482 s

Time = 14.5

Courant Number mean: 0.000328833 max: 0.0218118
smoothSolver:  Solving for Ux, Initial residual = 0.0124874, Final residual = 1.4852e-06, No Iterations 1
smoothSolver:  Solving for Uy, Initial residual = 0.0124866, Final residual = 1.48524e-06, No Iterations 1
smoothSolver:  Solving for Uz, Initial residual = 0.00877956, Final residual = 2.48414e-07, No Iterations 1
DICPCG:  Solving for p, Initial residual = 0.000293652, Final residual = 1.43842e-05, No Iterations 73
time step continuity errors : sum local = 2.24892e-11, global = 1.58254e-12, cumulative = 1.08778e-10
DICPCG:  Solving for p, Initial residual = 1.55997e-05, Final residual = 9.90983e-07, No Iterations 572
time step continuity errors : sum local = 1.54927e-12, global = -2.52477e-15, cumulative = 1.08775e-10
ExecutionTime = 496.63 s  ClockTime = 497 s

Time = 15

Courant Number mean: 0.000328827 max: 0.0219004
smoothSolver:  Solving for Ux, Initial residual = 0.0120343, Final residual = 1.41925e-06, No Iterations 1
smoothSolver:  Solving for Uy, Initial residual = 0.0120337, Final residual = 1.41929e-06, No Iterations 1
smoothSolver:  Solving for Uz, Initial residual = 0.00850159, Final residual = 2.38162e-07, No Iterations 1
DICPCG:  Solving for p, Initial residual = 0.000283377, Final residual = 1.39616e-05, No Iterations 70
time step continuity errors : sum local = 2.17086e-11, global = 1.6174e-12, cumulative = 1.10393e-10
DICPCG:  Solving for p, Initial residual = 1.51548e-05, Final residual = 9.82343e-07, No Iterations 572
time step continuity errors : sum local = 1.52733e-12, global = -1.62157e-14, cumulative = 1.10377e-10
ExecutionTime = 513.18 s  ClockTime = 513 s

Time = 15.5

Courant Number mean: 0.00032882 max: 0.0219782
smoothSolver:  Solving for Ux, Initial residual = 0.0116064, Final residual = 1.35782e-06, No Iterations 1
smoothSolver:  Solving for Uy, Initial residual = 0.0116058, Final residual = 1.35786e-06, No Iterations 1
smoothSolver:  Solving for Uz, Initial residual = 0.00824016, Final residual = 2.28637e-07, No Iterations 1
DICPCG:  Solving for p, Initial residual = 0.000259438, Final residual = 1.23239e-05, No Iterations 77
time step continuity errors : sum local = 1.90579e-11, global = 1.38787e-12, cumulative = 1.11765e-10
DICPCG:  Solving for p, Initial residual = 1.34609e-05, Final residual = 9.70405e-07, No Iterations 542
time step continuity errors : sum local = 1.50056e-12, global = -6.33916e-14, cumulative = 1.11701e-10
ExecutionTime = 528.12 s  ClockTime = 528 s

Time = 16

Courant Number mean: 0.000328814 max: 0.0220462
smoothSolver:  Solving for Ux, Initial residual = 0.0112075, Final residual = 1.30116e-06, No Iterations 1
smoothSolver:  Solving for Uy, Initial residual = 0.0112068, Final residual = 1.30121e-06, No Iterations 1
smoothSolver:  Solving for Uz, Initial residual = 0.00799382, Final residual = 2.19767e-07, No Iterations 1
DICPCG:  Solving for p, Initial residual = 0.000259405, Final residual = 1.28323e-05, No Iterations 74
time step continuity errors : sum local = 1.97374e-11, global = 1.35802e-12, cumulative = 1.13059e-10
DICPCG:  Solving for p, Initial residual = 1.38863e-05, Final residual = 9.64386e-07, No Iterations 501
time step continuity errors : sum local = 1.48323e-12, global = 7.57413e-14, cumulative = 1.13135e-10
ExecutionTime = 543.38 s  ClockTime = 544 s

Time = 16.5

Courant Number mean: 0.000328807 max: 0.0221033
smoothSolver:  Solving for Ux, Initial residual = 0.0108316, Final residual = 1.24851e-06, No Iterations 1
smoothSolver:  Solving for Uy, Initial residual = 0.0108309, Final residual = 1.24855e-06, No Iterations 1
smoothSolver:  Solving for Uz, Initial residual = 0.00776125, Final residual = 2.11494e-07, No Iterations 1
DICPCG:  Solving for p, Initial residual = 0.000244386, Final residual = 1.16616e-05, No Iterations 77
time step continuity errors : sum local = 1.78408e-11, global = 1.31405e-12, cumulative = 1.14449e-10
DICPCG:  Solving for p, Initial residual = 1.27231e-05, Final residual = 9.47579e-07, No Iterations 538
time step continuity errors : sum local = 1.44957e-12, global = -2.84503e-14, cumulative = 1.14421e-10
ExecutionTime = 558.25 s  ClockTime = 559 s

Time = 17

Courant Number mean: 0.0003288 max: 0.0221435
smoothSolver:  Solving for Ux, Initial residual = 0.0104775, Final residual = 1.19949e-06, No Iterations 1
smoothSolver:  Solving for Uy, Initial residual = 0.0104766, Final residual = 1.19955e-06, No Iterations 1
smoothSolver:  Solving for Uz, Initial residual = 0.00754138, Final residual = 2.03737e-07, No Iterations 1
DICPCG:  Solving for p, Initial residual = 0.000232458, Final residual = 1.15688e-05, No Iterations 77
time step continuity errors : sum local = 1.76046e-11, global = 1.24468e-12, cumulative = 1.15665e-10
DICPCG:  Solving for p, Initial residual = 1.25925e-05, Final residual = 9.81158e-07, No Iterations 570
time step continuity errors : sum local = 1.49296e-12, global = 7.00785e-16, cumulative = 1.15666e-10
ExecutionTime = 575.63 s  ClockTime = 576 s

Time = 17.5

Courant Number mean: 0.000328793 max: 0.0221735
smoothSolver:  Solving for Ux, Initial residual = 0.0101411, Final residual = 1.15371e-06, No Iterations 1
smoothSolver:  Solving for Uy, Initial residual = 0.0101406, Final residual = 1.15375e-06, No Iterations 1
smoothSolver:  Solving for Uz, Initial residual = 0.00733313, Final residual = 1.96491e-07, No Iterations 1
DICPCG:  Solving for p, Initial residual = 0.000223171, Final residual = 1.11466e-05, No Iterations 526
time step continuity errors : sum local = 1.68727e-11, global = -2.43179e-13, cumulative = 1.15423e-10
DICPCG:  Solving for p, Initial residual = 1.22553e-05, Final residual = 9.96685e-07, No Iterations 118
time step continuity errors : sum local = 1.50076e-12, global = 8.46797e-14, cumulative = 1.15507e-10
ExecutionTime = 590.55 s  ClockTime = 591 s

Time = 18

Courant Number mean: 0.000328785 max: 0.022195
smoothSolver:  Solving for Ux, Initial residual = 0.00982288, Final residual = 1.11099e-06, No Iterations 1
smoothSolver:  Solving for Uy, Initial residual = 0.0098225, Final residual = 1.11103e-06, No Iterations 1
smoothSolver:  Solving for Uz, Initial residual = 0.00713568, Final residual = 1.89699e-07, No Iterations 1
DICPCG:  Solving for p, Initial residual = 0.000217739, Final residual = 1.07651e-05, No Iterations 77
time step continuity errors : sum local = 1.62101e-11, global = 1.24028e-12, cumulative = 1.16748e-10
DICPCG:  Solving for p, Initial residual = 1.17376e-05, Final residual = 9.15563e-07, No Iterations 570
time step continuity errors : sum local = 1.37854e-12, global = 2.29768e-15, cumulative = 1.1675e-10
ExecutionTime = 607.77 s  ClockTime = 608 s

Time = 18.5

Courant Number mean: 0.000328778 max: 0.0222087
smoothSolver:  Solving for Ux, Initial residual = 0.00952105, Final residual = 1.07094e-06, No Iterations 1
smoothSolver:  Solving for Uy, Initial residual = 0.00952092, Final residual = 1.07098e-06, No Iterations 1
smoothSolver:  Solving for Uz, Initial residual = 0.0069481, Final residual = 1.83269e-07, No Iterations 1
DICPCG:  Solving for p, Initial residual = 0.000216497, Final residual = 1.08238e-05, No Iterations 79
time step continuity errors : sum local = 1.6213e-11, global = 1.12808e-12, cumulative = 1.17878e-10
DICPCG:  Solving for p, Initial residual = 1.17525e-05, Final residual = 9.25041e-07, No Iterations 512
time step continuity errors : sum local = 1.3855e-12, global = -1.07112e-14, cumulative = 1.17867e-10
ExecutionTime = 621.96 s  ClockTime = 622 s

Time = 19

Courant Number mean: 0.00032877 max: 0.0222152
smoothSolver:  Solving for Ux, Initial residual = 0.00923605, Final residual = 1.03344e-06, No Iterations 1
smoothSolver:  Solving for Uy, Initial residual = 0.00923546, Final residual = 1.03351e-06, No Iterations 1
smoothSolver:  Solving for Uz, Initial residual = 0.0067712, Final residual = 1.77245e-07, No Iterations 1
DICPCG:  Solving for p, Initial residual = 0.00020713, Final residual = 1.02094e-05, No Iterations 529
time step continuity errors : sum local = 1.52137e-11, global = 4.29041e-13, cumulative = 1.18296e-10
DICPCG:  Solving for p, Initial residual = 1.11979e-05, Final residual = 9.85826e-07, No Iterations 126
time step continuity errors : sum local = 1.46157e-12, global = 9.66151e-14, cumulative = 1.18393e-10
ExecutionTime = 640.25 s  ClockTime = 641 s

Time = 19.5

Courant Number mean: 0.000328762 max: 0.0222149
smoothSolver:  Solving for Ux, Initial residual = 0.00896503, Final residual = 9.98521e-07, No Iterations 1
smoothSolver:  Solving for Uy, Initial residual = 0.00896477, Final residual = 9.98549e-07, No Iterations 1
smoothSolver:  Solving for Uz, Initial residual = 0.00660306, Final residual = 1.71576e-07, No Iterations 1
DICPCG:  Solving for p, Initial residual = 0.000199179, Final residual = 9.78548e-06, No Iterations 520
time step continuity errors : sum local = 1.45082e-11, global = -3.88388e-13, cumulative = 1.18005e-10
DICPCG:  Solving for p, Initial residual = 1.07358e-05, Final residual = 9.75728e-07, No Iterations 113
time step continuity errors : sum local = 1.43909e-12, global = 8.04808e-14, cumulative = 1.18085e-10
ExecutionTime = 655 s  ClockTime = 655 s

Time = 20

Courant Number mean: 0.000328754 max: 0.0222079
smoothSolver:  Solving for Ux, Initial residual = 0.00870583, Final residual = 9.65666e-07, No Iterations 1
smoothSolver:  Solving for Uy, Initial residual = 0.00870585, Final residual = 9.65717e-07, No Iterations 1
smoothSolver:  Solving for Uz, Initial residual = 0.00644235, Final residual = 1.66194e-07, No Iterations 1
DICPCG:  Solving for p, Initial residual = 0.000194617, Final residual = 9.43038e-06, No Iterations 533
time step continuity errors : sum local = 1.39092e-11, global = 6.51379e-13, cumulative = 1.18736e-10
DICPCG:  Solving for p, Initial residual = 1.03878e-05, Final residual = 9.97141e-07, No Iterations 146
time step continuity errors : sum local = 1.46348e-12, global = 6.22035e-14, cumulative = 1.18799e-10
ExecutionTime = 671.71 s  ClockTime = 672 s

Time = 20.5

Courant Number mean: 0.000328746 max: 0.0221945
smoothSolver:  Solving for Ux, Initial residual = 0.00846034, Final residual = 9.34638e-07, No Iterations 1
smoothSolver:  Solving for Uy, Initial residual = 0.00846042, Final residual = 9.34674e-07, No Iterations 1
smoothSolver:  Solving for Uz, Initial residual = 0.00628957, Final residual = 1.61114e-07, No Iterations 1
DICPCG:  Solving for p, Initial residual = 0.000194671, Final residual = 9.49642e-06, No Iterations 523
time step continuity errors : sum local = 1.39379e-11, global = -5.65159e-14, cumulative = 1.18742e-10
DICPCG:  Solving for p, Initial residual = 1.0462e-05, Final residual = 9.83059e-07, No Iterations 110
time step continuity errors : sum local = 1.43531e-12, global = 8.57866e-14, cumulative = 1.18828e-10
ExecutionTime = 687.85 s  ClockTime = 688 s

Time = 21

Courant Number mean: 0.000328738 max: 0.022175
smoothSolver:  Solving for Ux, Initial residual = 0.00822447, Final residual = 9.05963e-07, No Iterations 1
smoothSolver:  Solving for Uy, Initial residual = 0.0082244, Final residual = 9.06005e-07, No Iterations 1
smoothSolver:  Solving for Uz, Initial residual = 0.0061428, Final residual = 1.56298e-07, No Iterations 1
DICPCG:  Solving for p, Initial residual = 0.000187469, Final residual = 9.29452e-06, No Iterations 527
time step continuity errors : sum local = 1.35708e-11, global = -2.2492e-13, cumulative = 1.18603e-10
DICPCG:  Solving for p, Initial residual = 1.01941e-05, Final residual = 9.7341e-07, No Iterations 118
time step continuity errors : sum local = 1.41436e-12, global = 6.44675e-14, cumulative = 1.18667e-10
ExecutionTime = 705.46 s  ClockTime = 706 s

Time = 21.5

Courant Number mean: 0.000328729 max: 0.02215
smoothSolver:  Solving for Ux, Initial residual = 0.00800207, Final residual = 8.78732e-07, No Iterations 1
smoothSolver:  Solving for Uy, Initial residual = 0.00800208, Final residual = 8.78771e-07, No Iterations 1
smoothSolver:  Solving for Uz, Initial residual = 0.00600319, Final residual = 1.51739e-07, No Iterations 1
DICPCG:  Solving for p, Initial residual = 0.000184168, Final residual = 9.18135e-06, No Iterations 536
time step continuity errors : sum local = 1.33407e-11, global = 7.21245e-13, cumulative = 1.19389e-10
DICPCG:  Solving for p, Initial residual = 1.00739e-05, Final residual = 9.91513e-07, No Iterations 147
time step continuity errors : sum local = 1.4336e-12, global = 6.44165e-14, cumulative = 1.19453e-10
ExecutionTime = 722.44 s  ClockTime = 723 s

Time = 22

Courant Number mean: 0.000328721 max: 0.0221195
smoothSolver:  Solving for Ux, Initial residual = 0.00778968, Final residual = 8.53249e-07, No Iterations 1
smoothSolver:  Solving for Uy, Initial residual = 0.00778965, Final residual = 8.53296e-07, No Iterations 1
smoothSolver:  Solving for Uz, Initial residual = 0.00586926, Final residual = 1.47409e-07, No Iterations 1
DICPCG:  Solving for p, Initial residual = 0.0001804, Final residual = 8.99063e-06, No Iterations 532
time step continuity errors : sum local = 1.29994e-11, global = 5.56978e-13, cumulative = 1.2001e-10
DICPCG:  Solving for p, Initial residual = 9.86563e-06, Final residual = 9.72986e-07, No Iterations 150
time step continuity errors : sum local = 1.3998e-12, global = 4.33538e-14, cumulative = 1.20053e-10
ExecutionTime = 740.57 s  ClockTime = 741 s

Time = 22.5

Courant Number mean: 0.000328712 max: 0.0220839
smoothSolver:  Solving for Ux, Initial residual = 0.00758549, Final residual = 8.29547e-07, No Iterations 1
smoothSolver:  Solving for Uy, Initial residual = 0.00758546, Final residual = 8.29588e-07, No Iterations 1
smoothSolver:  Solving for Uz, Initial residual = 0.00574069, Final residual = 1.43288e-07, No Iterations 1
DICPCG:  Solving for p, Initial residual = 0.000175354, Final residual = 8.6765e-06, No Iterations 537
time step continuity errors : sum local = 1.24827e-11, global = 6.06164e-13, cumulative = 1.2066e-10
DICPCG:  Solving for p, Initial residual = 9.51801e-06, Final residual = 9.9559e-07, No Iterations 155
time step continuity errors : sum local = 1.42541e-12, global = 4.15718e-14, cumulative = 1.20701e-10
ExecutionTime = 757.54 s  ClockTime = 758 s

Time = 23

Courant Number mean: 0.000328703 max: 0.0220433
smoothSolver:  Solving for Ux, Initial residual = 0.00739042, Final residual = 8.07291e-07, No Iterations 1
smoothSolver:  Solving for Uy, Initial residual = 0.00739029, Final residual = 8.07333e-07, No Iterations 1
smoothSolver:  Solving for Uz, Initial residual = 0.00561767, Final residual = 1.39376e-07, No Iterations 1
DICPCG:  Solving for p, Initial residual = 0.000173208, Final residual = 8.56978e-06, No Iterations 535
time step continuity errors : sum local = 1.22697e-11, global = 6.16106e-13, cumulative = 1.21317e-10
DICPCG:  Solving for p, Initial residual = 9.38654e-06, Final residual = 9.98991e-07, No Iterations 147
time step continuity errors : sum local = 1.42335e-12, global = 5.37534e-14, cumulative = 1.21371e-10
ExecutionTime = 775.75 s  ClockTime = 776 s

Time = 23.5

Courant Number mean: 0.000328694 max: 0.021998
smoothSolver:  Solving for Ux, Initial residual = 0.00720326, Final residual = 7.86456e-07, No Iterations 1
smoothSolver:  Solving for Uy, Initial residual = 0.0072031, Final residual = 7.86502e-07, No Iterations 1
smoothSolver:  Solving for Uz, Initial residual = 0.00549945, Final residual = 1.35651e-07, No Iterations 1
DICPCG:  Solving for p, Initial residual = 0.000170506, Final residual = 8.40409e-06, No Iterations 536
time step continuity errors : sum local = 1.19741e-11, global = 5.92232e-13, cumulative = 1.21963e-10
DICPCG:  Solving for p, Initial residual = 9.21872e-06, Final residual = 9.5782e-07, No Iterations 145
time step continuity errors : sum local = 1.35814e-12, global = 5.1726e-14, cumulative = 1.22015e-10
ExecutionTime = 791.54 s  ClockTime = 792 s

Time = 24

Courant Number mean: 0.000328685 max: 0.0219482
smoothSolver:  Solving for Ux, Initial residual = 0.007023, Final residual = 7.66834e-07, No Iterations 1
smoothSolver:  Solving for Uy, Initial residual = 0.00702287, Final residual = 7.66874e-07, No Iterations 1
smoothSolver:  Solving for Uz, Initial residual = 0.0053859, Final residual = 1.32098e-07, No Iterations 1
DICPCG:  Solving for p, Initial residual = 0.000164481, Final residual = 7.63657e-06, No Iterations 570
time step continuity errors : sum local = 1.08283e-11, global = 2.73396e-14, cumulative = 1.22042e-10
DICPCG:  Solving for p, Initial residual = 8.446e-06, Final residual = 9.55286e-07, No Iterations 33
time step continuity errors : sum local = 1.34799e-12, global = -1.31485e-13, cumulative = 1.21911e-10
ExecutionTime = 807.18 s  ClockTime = 808 s

Time = 24.5

Courant Number mean: 0.000328676 max: 0.0218942
smoothSolver:  Solving for Ux, Initial residual = 0.00684966, Final residual = 7.48355e-07, No Iterations 1
smoothSolver:  Solving for Uy, Initial residual = 0.00684949, Final residual = 7.48391e-07, No Iterations 1
smoothSolver:  Solving for Uz, Initial residual = 0.00527657, Final residual = 1.28694e-07, No Iterations 1
DICPCG:  Solving for p, Initial residual = 0.000168156, Final residual = 8.29538e-06, No Iterations 527
time step continuity errors : sum local = 1.17054e-11, global = -2.38362e-13, cumulative = 1.21673e-10
DICPCG:  Solving for p, Initial residual = 9.04544e-06, Final residual = 9.72879e-07, No Iterations 118
time step continuity errors : sum local = 1.36649e-12, global = 3.23348e-14, cumulative = 1.21705e-10
ExecutionTime = 822.1 s  ClockTime = 822 s

Time = 25

Courant Number mean: 0.000328667 max: 0.0218363
smoothSolver:  Solving for Ux, Initial residual = 0.00668413, Final residual = 7.30936e-07, No Iterations 1
smoothSolver:  Solving for Uy, Initial residual = 0.00668423, Final residual = 7.30972e-07, No Iterations 1
smoothSolver:  Solving for Uz, Initial residual = 0.00517182, Final residual = 1.25488e-07, No Iterations 1
DICPCG:  Solving for p, Initial residual = 0.000163288, Final residual = 7.43293e-06, No Iterations 570
time step continuity errors : sum local = 1.04402e-11, global = 1.98774e-15, cumulative = 1.21707e-10
DICPCG:  Solving for p, Initial residual = 8.19955e-06, Final residual = 9.81629e-07, No Iterations 32
time step continuity errors : sum local = 1.3722e-12, global = -1.3595e-13, cumulative = 1.21571e-10
ExecutionTime = 837.71 s  ClockTime = 838 s

Time = 25.5

Courant Number mean: 0.000328657 max: 0.0217746
smoothSolver:  Solving for Ux, Initial residual = 0.00652369, Final residual = 7.14191e-07, No Iterations 1
smoothSolver:  Solving for Uy, Initial residual = 0.00652364, Final residual = 7.14224e-07, No Iterations 1
smoothSolver:  Solving for Uz, Initial residual = 0.00507051, Final residual = 1.22371e-07, No Iterations 1
DICPCG:  Solving for p, Initial residual = 0.000157531, Final residual = 7.6514e-06, No Iterations 530
time step continuity errors : sum local = 1.06958e-11, global = 2.16294e-13, cumulative = 1.21787e-10
DICPCG:  Solving for p, Initial residual = 8.37543e-06, Final residual = 9.79586e-07, No Iterations 121
time step continuity errors : sum local = 1.3631e-12, global = 6.0443e-14, cumulative = 1.21848e-10
ExecutionTime = 852.87 s  ClockTime = 853 s

Time = 26

Courant Number mean: 0.000328648 max: 0.0217096
smoothSolver:  Solving for Ux, Initial residual = 0.00637029, Final residual = 6.98499e-07, No Iterations 1
smoothSolver:  Solving for Uy, Initial residual = 0.00637021, Final residual = 6.98535e-07, No Iterations 1
smoothSolver:  Solving for Uz, Initial residual = 0.00497325, Final residual = 1.19438e-07, No Iterations 1
DICPCG:  Solving for p, Initial residual = 0.000156354, Final residual = 7.51496e-06, No Iterations 569
time step continuity errors : sum local = 1.04571e-11, global = 1.93962e-14, cumulative = 1.21867e-10
DICPCG:  Solving for p, Initial residual = 8.25115e-06, Final residual = 9.63724e-07, No Iterations 33
time step continuity errors : sum local = 1.33472e-12, global = -1.15625e-13, cumulative = 1.21751e-10
ExecutionTime = 868.47 s  ClockTime = 869 s

Time = 26.5

Courant Number mean: 0.000328638 max: 0.0216415
smoothSolver:  Solving for Ux, Initial residual = 0.00622146, Final residual = 6.83288e-07, No Iterations 1
smoothSolver:  Solving for Uy, Initial residual = 0.00622136, Final residual = 6.83322e-07, No Iterations 1
smoothSolver:  Solving for Uz, Initial residual = 0.00487913, Final residual = 1.16581e-07, No Iterations 1
DICPCG:  Solving for p, Initial residual = 0.000153659, Final residual = 7.44711e-06, No Iterations 520
time step continuity errors : sum local = 1.03139e-11, global = -1.07619e-13, cumulative = 1.21644e-10
DICPCG:  Solving for p, Initial residual = 8.13972e-06, Final residual = 9.96293e-07, No Iterations 51
time step continuity errors : sum local = 1.37357e-12, global = 2.2922e-14, cumulative = 1.21667e-10
ExecutionTime = 881.82 s  ClockTime = 882 s

Time = 27

Courant Number mean: 0.000328629 max: 0.0215698
smoothSolver:  Solving for Ux, Initial residual = 0.00607888, Final residual = 6.68963e-07, No Iterations 1
smoothSolver:  Solving for Uy, Initial residual = 0.00607878, Final residual = 6.68997e-07, No Iterations 1
smoothSolver:  Solving for Uz, Initial residual = 0.00478859, Final residual = 1.13887e-07, No Iterations 1
DICPCG:  Solving for p, Initial residual = 0.00015383, Final residual = 7.61524e-06, No Iterations 527
time step continuity errors : sum local = 1.0499e-11, global = -1.54737e-13, cumulative = 1.21512e-10
DICPCG:  Solving for p, Initial residual = 8.30342e-06, Final residual = 9.79607e-07, No Iterations 114
time step continuity errors : sum local = 1.34448e-12, global = 8.16099e-14, cumulative = 1.21594e-10
ExecutionTime = 898.33 s  ClockTime = 899 s

Time = 27.5

Courant Number mean: 0.000328619 max: 0.0214938
smoothSolver:  Solving for Ux, Initial residual = 0.00594157, Final residual = 6.55102e-07, No Iterations 1
smoothSolver:  Solving for Uy, Initial residual = 0.00594151, Final residual = 6.55139e-07, No Iterations 1
smoothSolver:  Solving for Uz, Initial residual = 0.00470116, Final residual = 1.11278e-07, No Iterations 1
DICPCG:  Solving for p, Initial residual = 0.000152337, Final residual = 7.37562e-06, No Iterations 569
time step continuity errors : sum local = 1.01227e-11, global = -7.58937e-15, cumulative = 1.21586e-10
DICPCG:  Solving for p, Initial residual = 8.06476e-06, Final residual = 9.87526e-07, No Iterations 31
time step continuity errors : sum local = 1.34909e-12, global = -1.11897e-13, cumulative = 1.21474e-10
ExecutionTime = 912.37 s  ClockTime = 913 s

Time = 28

Courant Number mean: 0.000328609 max: 0.0214144
smoothSolver:  Solving for Ux, Initial residual = 0.00580837, Final residual = 6.41802e-07, No Iterations 1
smoothSolver:  Solving for Uy, Initial residual = 0.00580831, Final residual = 6.41834e-07, No Iterations 1
smoothSolver:  Solving for Uz, Initial residual = 0.00461647, Final residual = 1.08765e-07, No Iterations 1
DICPCG:  Solving for p, Initial residual = 0.000152035, Final residual = 7.48523e-06, No Iterations 568
time step continuity errors : sum local = 1.02257e-11, global = -3.52909e-14, cumulative = 1.21439e-10
DICPCG:  Solving for p, Initial residual = 8.14025e-06, Final residual = 9.93097e-07, No Iterations 32
time step continuity errors : sum local = 1.35068e-12, global = -9.76379e-14, cumulative = 1.21341e-10
ExecutionTime = 928.12 s  ClockTime = 928 s

Time = 28.5

Courant Number mean: 0.000328599 max: 0.0213322
smoothSolver:  Solving for Ux, Initial residual = 0.00568061, Final residual = 6.2917e-07, No Iterations 1
smoothSolver:  Solving for Uy, Initial residual = 0.00568057, Final residual = 6.29209e-07, No Iterations 1
smoothSolver:  Solving for Uz, Initial residual = 0.00453488, Final residual = 1.06378e-07, No Iterations 1
DICPCG:  Solving for p, Initial residual = 0.00014996, Final residual = 7.23835e-06, No Iterations 518
time step continuity errors : sum local = 9.84448e-12, global = -1.69666e-13, cumulative = 1.21172e-10
DICPCG:  Solving for p, Initial residual = 7.90885e-06, Final residual = 9.97532e-07, No Iterations 48
time step continuity errors : sum local = 1.35066e-12, global = -6.54236e-15, cumulative = 1.21165e-10
ExecutionTime = 941.24 s  ClockTime = 942 s

Time = 29

Courant Number mean: 0.000328589 max: 0.0212474
smoothSolver:  Solving for Ux, Initial residual = 0.00555677, Final residual = 6.17135e-07, No Iterations 1
smoothSolver:  Solving for Uy, Initial residual = 0.00555673, Final residual = 6.17169e-07, No Iterations 1
smoothSolver:  Solving for Uz, Initial residual = 0.00445589, Final residual = 1.04077e-07, No Iterations 1
DICPCG:  Solving for p, Initial residual = 0.000153724, Final residual = 6.85867e-06, No Iterations 569
time step continuity errors : sum local = 9.28642e-12, global = -2.09373e-14, cumulative = 1.21144e-10
DICPCG:  Solving for p, Initial residual = 7.52862e-06, Final residual = 9.82396e-07, No Iterations 28
time step continuity errors : sum local = 1.32426e-12, global = -1.01379e-13, cumulative = 1.21043e-10
ExecutionTime = 957.45 s  ClockTime = 958 s

Time = 29.5

Courant Number mean: 0.000328579 max: 0.0211602
smoothSolver:  Solving for Ux, Initial residual = 0.00543647, Final residual = 6.05284e-07, No Iterations 1
smoothSolver:  Solving for Uy, Initial residual = 0.00543648, Final residual = 6.05317e-07, No Iterations 1
smoothSolver:  Solving for Uz, Initial residual = 0.00437945, Final residual = 1.01848e-07, No Iterations 1
DICPCG:  Solving for p, Initial residual = 0.000154562, Final residual = 6.95046e-06, No Iterations 568
time step continuity errors : sum local = 9.36885e-12, global = -2.66541e-14, cumulative = 1.21016e-10
DICPCG:  Solving for p, Initial residual = 7.58819e-06, Final residual = 9.89384e-07, No Iterations 29
time step continuity errors : sum local = 1.3278e-12, global = -9.59881e-14, cumulative = 1.2092e-10
ExecutionTime = 971.84 s  ClockTime = 972 s

Time = 30

Courant Number mean: 0.000328569 max: 0.0210708
smoothSolver:  Solving for Ux, Initial residual = 0.00532036, Final residual = 5.94075e-07, No Iterations 1
smoothSolver:  Solving for Uy, Initial residual = 0.00532033, Final residual = 5.94111e-07, No Iterations 1
smoothSolver:  Solving for Uz, Initial residual = 0.00430548, Final residual = 9.97221e-08, No Iterations 1
DICPCG:  Solving for p, Initial residual = 0.000147971, Final residual = 6.99937e-06, No Iterations 534
time step continuity errors : sum local = 9.39329e-12, global = 2.18371e-13, cumulative = 1.21138e-10
DICPCG:  Solving for p, Initial residual = 7.62848e-06, Final residual = 9.4988e-07, No Iterations 140
time step continuity errors : sum local = 1.26928e-12, global = 1.14523e-14, cumulative = 1.2115e-10
ExecutionTime = 990.39 s  ClockTime = 991 s

Time = 30.5

Courant Number mean: 0.000328558 max: 0.0209784
smoothSolver:  Solving for Ux, Initial residual = 0.00520867, Final residual = 5.83276e-07, No Iterations 1
smoothSolver:  Solving for Uy, Initial residual = 0.00520871, Final residual = 5.83308e-07, No Iterations 1
smoothSolver:  Solving for Uz, Initial residual = 0.00423391, Final residual = 9.7679e-08, No Iterations 1
DICPCG:  Solving for p, Initial residual = 0.000150324, Final residual = 6.79575e-06, No Iterations 569
time step continuity errors : sum local = 9.08065e-12, global = -9.8815e-15, cumulative = 1.2114e-10
DICPCG:  Solving for p, Initial residual = 7.42925e-06, Final residual = 9.95324e-07, No Iterations 28
time step continuity errors : sum local = 1.32413e-12, global = -9.97466e-14, cumulative = 1.2104e-10
ExecutionTime = 1004.96 s  ClockTime = 1005 s

Time = 31

Courant Number mean: 0.000328548 max: 0.0208838
smoothSolver:  Solving for Ux, Initial residual = 0.00509911, Final residual = 5.72873e-07, No Iterations 1
smoothSolver:  Solving for Uy, Initial residual = 0.00509914, Final residual = 5.72902e-07, No Iterations 1
smoothSolver:  Solving for Uz, Initial residual = 0.00416432, Final residual = 9.56796e-08, No Iterations 1
DICPCG:  Solving for p, Initial residual = 0.000151321, Final residual = 7.22126e-06, No Iterations 536
time step continuity errors : sum local = 9.60651e-12, global = 1.1183e-13, cumulative = 1.21152e-10
DICPCG:  Solving for p, Initial residual = 7.83903e-06, Final residual = 9.59332e-07, No Iterations 143
time step continuity errors : sum local = 1.27087e-12, global = 3.98449e-15, cumulative = 1.21156e-10
ExecutionTime = 1023.45 s  ClockTime = 1024 s

Time = 31.5

Courant Number mean: 0.000328537 max: 0.0207876
smoothSolver:  Solving for Ux, Initial residual = 0.00499304, Final residual = 5.62747e-07, No Iterations 1
smoothSolver:  Solving for Uy, Initial residual = 0.00499308, Final residual = 5.62783e-07, No Iterations 1
smoothSolver:  Solving for Uz, Initial residual = 0.00409718, Final residual = 9.37967e-08, No Iterations 1
DICPCG:  Solving for p, Initial residual = 0.00014654, Final residual = 6.59643e-06, No Iterations 569
time step continuity errors : sum local = 8.73845e-12, global = -1.03306e-14, cumulative = 1.21146e-10
DICPCG:  Solving for p, Initial residual = 7.18995e-06, Final residual = 9.55911e-07, No Iterations 28
time step continuity errors : sum local = 1.26082e-12, global = -9.96339e-14, cumulative = 1.21046e-10
ExecutionTime = 1039.32 s  ClockTime = 1040 s

Time = 32

Courant Number mean: 0.000328527 max: 0.0206897
smoothSolver:  Solving for Ux, Initial residual = 0.00489027, Final residual = 5.5312e-07, No Iterations 1
smoothSolver:  Solving for Uy, Initial residual = 0.00489025, Final residual = 5.53148e-07, No Iterations 1
smoothSolver:  Solving for Uz, Initial residual = 0.00403173, Final residual = 9.1938e-08, No Iterations 1
DICPCG:  Solving for p, Initial residual = 0.000145108, Final residual = 7.12799e-06, No Iterations 538
time step continuity errors : sum local = 9.40146e-12, global = 4.5776e-14, cumulative = 1.21092e-10
DICPCG:  Solving for p, Initial residual = 7.67629e-06, Final residual = 9.58052e-07, No Iterations 141
time step continuity errors : sum local = 1.25843e-12, global = 8.04144e-15, cumulative = 1.211e-10
ExecutionTime = 1055.98 s  ClockTime = 1056 s

Time = 32.5

Courant Number mean: 0.000328516 max: 0.0205904
smoothSolver:  Solving for Ux, Initial residual = 0.00479132, Final residual = 5.43733e-07, No Iterations 1
smoothSolver:  Solving for Uy, Initial residual = 0.00479125, Final residual = 5.43766e-07, No Iterations 1
smoothSolver:  Solving for Uz, Initial residual = 0.00396855, Final residual = 9.0185e-08, No Iterations 1
DICPCG:  Solving for p, Initial residual = 0.000145799, Final residual = 6.44346e-06, No Iterations 569
time step continuity errors : sum local = 8.46353e-12, global = -1.39772e-14, cumulative = 1.21086e-10
DICPCG:  Solving for p, Initial residual = 7.03876e-06, Final residual = 9.90997e-07, No Iterations 27
time step continuity errors : sum local = 1.29614e-12, global = -9.66248e-14, cumulative = 1.20989e-10
ExecutionTime = 1069.4 s  ClockTime = 1070 s

Time = 33

Courant Number mean: 0.000328505 max: 0.0204898
smoothSolver:  Solving for Ux, Initial residual = 0.00469434, Final residual = 5.34779e-07, No Iterations 1
smoothSolver:  Solving for Uy, Initial residual = 0.00469425, Final residual = 5.34804e-07, No Iterations 1
smoothSolver:  Solving for Uz, Initial residual = 0.00390692, Final residual = 8.84538e-08, No Iterations 1
DICPCG:  Solving for p, Initial residual = 0.000143335, Final residual = 6.652e-06, No Iterations 536
time step continuity errors : sum local = 8.70006e-12, global = 3.40442e-15, cumulative = 1.20993e-10
DICPCG:  Solving for p, Initial residual = 7.19688e-06, Final residual = 9.90687e-07, No Iterations 94
time step continuity errors : sum local = 1.29044e-12, global = 6.67447e-14, cumulative = 1.21059e-10
ExecutionTime = 1086.5 s  ClockTime = 1087 s

Time = 33.5

Courant Number mean: 0.000328495 max: 0.0203878
smoothSolver:  Solving for Ux, Initial residual = 0.00460109, Final residual = 5.26055e-07, No Iterations 1
smoothSolver:  Solving for Uy, Initial residual = 0.00460103, Final residual = 5.26086e-07, No Iterations 1
smoothSolver:  Solving for Uz, Initial residual = 0.00384745, Final residual = 8.68201e-08, No Iterations 1
DICPCG:  Solving for p, Initial residual = 0.000140315, Final residual = 6.54769e-06, No Iterations 568
time step continuity errors : sum local = 8.52872e-12, global = -4.94366e-14, cumulative = 1.2101e-10
DICPCG:  Solving for p, Initial residual = 7.05572e-06, Final residual = 9.57281e-07, No Iterations 27
time step continuity errors : sum local = 1.2417e-12, global = -1.13252e-13, cumulative = 1.20897e-10
ExecutionTime = 1101.45 s  ClockTime = 1102 s

Time = 34

Courant Number mean: 0.000328484 max: 0.0202847
smoothSolver:  Solving for Ux, Initial residual = 0.00451047, Final residual = 5.17654e-07, No Iterations 1
smoothSolver:  Solving for Uy, Initial residual = 0.00451039, Final residual = 5.17681e-07, No Iterations 1
smoothSolver:  Solving for Uz, Initial residual = 0.00378976, Final residual = 8.52012e-08, No Iterations 1
DICPCG:  Solving for p, Initial residual = 0.000139076, Final residual = 6.26061e-06, No Iterations 536
time step continuity errors : sum local = 8.12056e-12, global = -1.07124e-13, cumulative = 1.2079e-10
DICPCG:  Solving for p, Initial residual = 6.78353e-06, Final residual = 9.67389e-07, No Iterations 63
time step continuity errors : sum local = 1.24974e-12, global = 4.60834e-14, cumulative = 1.20836e-10
ExecutionTime = 1117.07 s  ClockTime = 1117 s

Time = 34.5

Courant Number mean: 0.000328473 max: 0.0201805
smoothSolver:  Solving for Ux, Initial residual = 0.00442293, Final residual = 5.09561e-07, No Iterations 1
smoothSolver:  Solving for Uy, Initial residual = 0.00442277, Final residual = 5.09584e-07, No Iterations 1
smoothSolver:  Solving for Uz, Initial residual = 0.0037339, Final residual = 8.36782e-08, No Iterations 1
DICPCG:  Solving for p, Initial residual = 0.000138425, Final residual = 6.81079e-06, No Iterations 523
time step continuity errors : sum local = 8.79853e-12, global = 7.38761e-14, cumulative = 1.2091e-10
DICPCG:  Solving for p, Initial residual = 7.34275e-06, Final residual = 9.74207e-07, No Iterations 110
time step continuity errors : sum local = 1.25342e-12, global = 5.06344e-14, cumulative = 1.2096e-10
ExecutionTime = 1132.93 s  ClockTime = 1133 s

Time = 35

Courant Number mean: 0.000328462 max: 0.0200753
smoothSolver:  Solving for Ux, Initial residual = 0.00433777, Final residual = 5.0177e-07, No Iterations 1
smoothSolver:  Solving for Uy, Initial residual = 0.00433759, Final residual = 5.01795e-07, No Iterations 1
smoothSolver:  Solving for Uz, Initial residual = 0.00367949, Final residual = 8.21702e-08, No Iterations 1
DICPCG:  Solving for p, Initial residual = 0.000137836, Final residual = 6.30927e-06, No Iterations 568
time step continuity errors : sum local = 8.11737e-12, global = -3.63244e-14, cumulative = 1.20924e-10
DICPCG:  Solving for p, Initial residual = 6.78893e-06, Final residual = 9.98782e-07, No Iterations 25
time step continuity errors : sum local = 1.27982e-12, global = -8.78708e-14, cumulative = 1.20836e-10
ExecutionTime = 1148.78 s  ClockTime = 1149 s

Time = 35.5

Courant Number mean: 0.00032845 max: 0.0199692
smoothSolver:  Solving for Ux, Initial residual = 0.00425456, Final residual = 4.94034e-07, No Iterations 1
smoothSolver:  Solving for Uy, Initial residual = 0.00425439, Final residual = 4.94066e-07, No Iterations 1
smoothSolver:  Solving for Uz, Initial residual = 0.0036265, Final residual = 8.07175e-08, No Iterations 1
DICPCG:  Solving for p, Initial residual = 0.00013987, Final residual = 6.69258e-06, No Iterations 533
time step continuity errors : sum local = 8.5755e-12, global = 2.3719e-14, cumulative = 1.2086e-10
DICPCG:  Solving for p, Initial residual = 7.19448e-06, Final residual = 9.82343e-07, No Iterations 54
time step continuity errors : sum local = 1.25374e-12, global = -2.08764e-14, cumulative = 1.20839e-10
ExecutionTime = 1162.85 s  ClockTime = 1163 s

Time = 36

Courant Number mean: 0.000328439 max: 0.0198761
smoothSolver:  Solving for Ux, Initial residual = 0.004174, Final residual = 4.86762e-07, No Iterations 1
smoothSolver:  Solving for Uy, Initial residual = 0.00417381, Final residual = 4.86789e-07, No Iterations 1
smoothSolver:  Solving for Uz, Initial residual = 0.00357487, Final residual = 7.93268e-08, No Iterations 1
DICPCG:  Solving for p, Initial residual = 0.000134986, Final residual = 6.72769e-06, No Iterations 538
time step continuity errors : sum local = 8.58615e-12, global = -2.80265e-14, cumulative = 1.20811e-10
DICPCG:  Solving for p, Initial residual = 7.1976e-06, Final residual = 9.86484e-07, No Iterations 89
time step continuity errors : sum local = 1.25405e-12, global = 7.44448e-14, cumulative = 1.20885e-10
ExecutionTime = 1179.33 s  ClockTime = 1180 s

Time = 36.5

Courant Number mean: 0.000328428 max: 0.019784
smoothSolver:  Solving for Ux, Initial residual = 0.00409552, Final residual = 4.79465e-07, No Iterations 1
smoothSolver:  Solving for Uy, Initial residual = 0.00409524, Final residual = 4.79493e-07, No Iterations 1
smoothSolver:  Solving for Uz, Initial residual = 0.00352444, Final residual = 7.79623e-08, No Iterations 1
DICPCG:  Solving for p, Initial residual = 0.000135498, Final residual = 6.67144e-06, No Iterations 567
time step continuity errors : sum local = 8.4808e-12, global = -5.95782e-14, cumulative = 1.20826e-10
DICPCG:  Solving for p, Initial residual = 7.17626e-06, Final residual = 9.6008e-07, No Iterations 27
time step continuity errors : sum local = 1.21558e-12, global = -9.98877e-14, cumulative = 1.20726e-10
ExecutionTime = 1192.92 s  ClockTime = 1193 s

Time = 37

Courant Number mean: 0.000328417 max: 0.0196911
smoothSolver:  Solving for Ux, Initial residual = 0.00401913, Final residual = 4.72629e-07, No Iterations 1
smoothSolver:  Solving for Uy, Initial residual = 0.0040188, Final residual = 4.72658e-07, No Iterations 1
smoothSolver:  Solving for Uz, Initial residual = 0.00347506, Final residual = 7.66238e-08, No Iterations 1
DICPCG:  Solving for p, Initial residual = 0.000135224, Final residual = 6.65012e-06, No Iterations 532
time step continuity errors : sum local = 8.41962e-12, global = -4.89308e-15, cumulative = 1.20721e-10
DICPCG:  Solving for p, Initial residual = 7.127e-06, Final residual = 9.7987e-07, No Iterations 58
time step continuity errors : sum local = 1.23582e-12, global = -5.28309e-16, cumulative = 1.2072e-10
ExecutionTime = 1208.26 s  ClockTime = 1209 s

Time = 37.5

Courant Number mean: 0.000328405 max: 0.0195974
smoothSolver:  Solving for Ux, Initial residual = 0.00394494, Final residual = 4.65929e-07, No Iterations 1
smoothSolver:  Solving for Uy, Initial residual = 0.00394462, Final residual = 4.6596e-07, No Iterations 1
smoothSolver:  Solving for Uz, Initial residual = 0.00342712, Final residual = 7.53561e-08, No Iterations 1
DICPCG:  Solving for p, Initial residual = 0.000135415, Final residual = 6.57327e-06, No Iterations 536
time step continuity errors : sum local = 8.29005e-12, global = 7.68644e-14, cumulative = 1.20797e-10
DICPCG:  Solving for p, Initial residual = 7.04549e-06, Final residual = 9.92117e-07, No Iterations 138
time step continuity errors : sum local = 1.24644e-12, global = 2.72892e-15, cumulative = 1.208e-10
ExecutionTime = 1224.02 s  ClockTime = 1224 s

Time = 38

Courant Number mean: 0.000328394 max: 0.019503
smoothSolver:  Solving for Ux, Initial residual = 0.00387263, Final residual = 4.59264e-07, No Iterations 1
smoothSolver:  Solving for Uy, Initial residual = 0.00387229, Final residual = 4.59289e-07, No Iterations 1
smoothSolver:  Solving for Uz, Initial residual = 0.00338042, Final residual = 7.41077e-08, No Iterations 1
DICPCG:  Solving for p, Initial residual = 0.000135599, Final residual = 6.75305e-06, No Iterations 566
time step continuity errors : sum local = 8.48391e-12, global = -2.69192e-14, cumulative = 1.20773e-10
DICPCG:  Solving for p, Initial residual = 7.23982e-06, Final residual = 9.92425e-07, No Iterations 28
time step continuity errors : sum local = 1.24191e-12, global = -7.1358e-14, cumulative = 1.20702e-10
ExecutionTime = 1239.59 s  ClockTime = 1240 s

Time = 38.5

Courant Number mean: 0.000328382 max: 0.019408
smoothSolver:  Solving for Ux, Initial residual = 0.00380194, Final residual = 4.52973e-07, No Iterations 1
smoothSolver:  Solving for Uy, Initial residual = 0.00380164, Final residual = 4.53006e-07, No Iterations 1
smoothSolver:  Solving for Uz, Initial residual = 0.00333474, Final residual = 7.28911e-08, No Iterations 1
DICPCG:  Solving for p, Initial residual = 0.00013415, Final residual = 6.56228e-06, No Iterations 532
time step continuity errors : sum local = 8.21172e-12, global = 2.02479e-13, cumulative = 1.20904e-10
DICPCG:  Solving for p, Initial residual = 7.01569e-06, Final residual = 9.45547e-07, No Iterations 62
time step continuity errors : sum local = 1.17876e-12, global = 5.29076e-14, cumulative = 1.20957e-10
ExecutionTime = 1253.07 s  ClockTime = 1253 s

Time = 39

Courant Number mean: 0.000328371 max: 0.0193125
smoothSolver:  Solving for Ux, Initial residual = 0.00373346, Final residual = 4.46785e-07, No Iterations 1
smoothSolver:  Solving for Uy, Initial residual = 0.00373312, Final residual = 4.46806e-07, No Iterations 1
smoothSolver:  Solving for Uz, Initial residual = 0.00329038, Final residual = 7.17344e-08, No Iterations 1
DICPCG:  Solving for p, Initial residual = 0.000133469, Final residual = 6.31334e-06, No Iterations 566
time step continuity errors : sum local = 7.87029e-12, global = -5.52356e-14, cumulative = 1.20902e-10
DICPCG:  Solving for p, Initial residual = 6.77888e-06, Final residual = 9.63828e-07, No Iterations 26
time step continuity errors : sum local = 1.19696e-12, global = -6.12701e-14, cumulative = 1.20841e-10
ExecutionTime = 1268.16 s  ClockTime = 1269 s

Time = 39.5

Courant Number mean: 0.000328359 max: 0.0192164
smoothSolver:  Solving for Ux, Initial residual = 0.0036666, Final residual = 4.40708e-07, No Iterations 1
smoothSolver:  Solving for Uy, Initial residual = 0.00366627, Final residual = 4.40739e-07, No Iterations 1
smoothSolver:  Solving for Uz, Initial residual = 0.00324712, Final residual = 7.05818e-08, No Iterations 1
DICPCG:  Solving for p, Initial residual = 0.000136596, Final residual = 6.37693e-06, No Iterations 532
time step continuity errors : sum local = 7.91917e-12, global = 1.72342e-13, cumulative = 1.21013e-10
DICPCG:  Solving for p, Initial residual = 6.82532e-06, Final residual = 9.70457e-07, No Iterations 59
time step continuity errors : sum local = 1.20066e-12, global = 4.64077e-14, cumulative = 1.21059e-10
ExecutionTime = 1282.26 s  ClockTime = 1283 s

Time = 40

Courant Number mean: 0.000328347 max: 0.0191199
smoothSolver:  Solving for Ux, Initial residual = 0.00360119, Final residual = 4.34901e-07, No Iterations 1
smoothSolver:  Solving for Uy, Initial residual = 0.00360124, Final residual = 4.34929e-07, No Iterations 1
smoothSolver:  Solving for Uz, Initial residual = 0.00320497, Final residual = 6.94934e-08, No Iterations 1
DICPCG:  Solving for p, Initial residual = 0.000133829, Final residual = 6.33571e-06, No Iterations 566
time step continuity errors : sum local = 7.83835e-12, global = -5.57758e-14, cumulative = 1.21004e-10
DICPCG:  Solving for p, Initial residual = 6.79408e-06, Final residual = 9.79258e-07, No Iterations 26
time step continuity errors : sum local = 1.20699e-12, global = -5.91335e-14, cumulative = 1.20944e-10
ExecutionTime = 1297.89 s  ClockTime = 1298 s

Time = 40.5

Courant Number mean: 0.000328335 max: 0.0190231
smoothSolver:  Solving for Ux, Initial residual = 0.00353766, Final residual = 4.2911e-07, No Iterations 1
smoothSolver:  Solving for Uy, Initial residual = 0.00353756, Final residual = 4.29141e-07, No Iterations 1
smoothSolver:  Solving for Uz, Initial residual = 0.00316404, Final residual = 6.84068e-08, No Iterations 1
DICPCG:  Solving for p, Initial residual = 0.000133551, Final residual = 6.16899e-06, No Iterations 534
time step continuity errors : sum local = 7.60333e-12, global = 3.17961e-13, cumulative = 1.21262e-10
DICPCG:  Solving for p, Initial residual = 6.60319e-06, Final residual = 9.8807e-07, No Iterations 64
time step continuity errors : sum local = 1.21333e-12, global = 6.47166e-14, cumulative = 1.21327e-10
ExecutionTime = 1311.16 s  ClockTime = 1312 s

Time = 41

Courant Number mean: 0.000328324 max: 0.0189258
smoothSolver:  Solving for Ux, Initial residual = 0.00347564, Final residual = 4.2359e-07, No Iterations 1
smoothSolver:  Solving for Uy, Initial residual = 0.0034754, Final residual = 4.23613e-07, No Iterations 1
smoothSolver:  Solving for Uz, Initial residual = 0.00312415, Final residual = 6.73802e-08, No Iterations 1
DICPCG:  Solving for p, Initial residual = 0.000139623, Final residual = 6.87376e-06, No Iterations 523
time step continuity errors : sum local = 8.44047e-12, global = 1.28183e-13, cumulative = 1.21455e-10
DICPCG:  Solving for p, Initial residual = 7.31579e-06, Final residual = 9.5664e-07, No Iterations 113
time step continuity errors : sum local = 1.17037e-12, global = 6.17359e-14, cumulative = 1.21517e-10
ExecutionTime = 1327.76 s  ClockTime = 1328 s

Time = 41.5

Courant Number mean: 0.000328312 max: 0.0188283
smoothSolver:  Solving for Ux, Initial residual = 0.00341521, Final residual = 4.18239e-07, No Iterations 1
smoothSolver:  Solving for Uy, Initial residual = 0.00341502, Final residual = 4.18263e-07, No Iterations 1
smoothSolver:  Solving for Uz, Initial residual = 0.00308503, Final residual = 6.63531e-08, No Iterations 1
DICPCG:  Solving for p, Initial residual = 0.000130393, Final residual = 6.0873e-06, No Iterations 542
time step continuity errors : sum local = 7.44708e-12, global = 8.06591e-14, cumulative = 1.21598e-10
DICPCG:  Solving for p, Initial residual = 6.50611e-06, Final residual = 9.9719e-07, No Iterations 30
time step continuity errors : sum local = 1.21542e-12, global = -1.03951e-13, cumulative = 1.21494e-10
ExecutionTime = 1340.32 s  ClockTime = 1341 s

Time = 42

Courant Number mean: 0.0003283 max: 0.0187306
smoothSolver:  Solving for Ux, Initial residual = 0.00335581, Final residual = 4.12862e-07, No Iterations 1
smoothSolver:  Solving for Uy, Initial residual = 0.00335567, Final residual = 4.12899e-07, No Iterations 1
smoothSolver:  Solving for Uz, Initial residual = 0.0030466, Final residual = 6.53606e-08, No Iterations 1
DICPCG:  Solving for p, Initial residual = 0.000133414, Final residual = 6.3043e-06, No Iterations 534
time step continuity errors : sum local = 7.68375e-12, global = 3.8513e-13, cumulative = 1.21879e-10
DICPCG:  Solving for p, Initial residual = 6.71447e-06, Final residual = 9.43737e-07, No Iterations 89
time step continuity errors : sum local = 1.14617e-12, global = 5.57165e-14, cumulative = 1.21935e-10
ExecutionTime = 1355.44 s  ClockTime = 1356 s

Time = 42.5

Courant Number mean: 0.000328288 max: 0.0186326
smoothSolver:  Solving for Ux, Initial residual = 0.00329853, Final residual = 4.07773e-07, No Iterations 1
smoothSolver:  Solving for Uy, Initial residual = 0.00329856, Final residual = 4.07794e-07, No Iterations 1
smoothSolver:  Solving for Uz, Initial residual = 0.00300915, Final residual = 6.44039e-08, No Iterations 1
DICPCG:  Solving for p, Initial residual = 0.000135313, Final residual = 6.70793e-06, No Iterations 494
time step continuity errors : sum local = 8.14653e-12, global = 4.74032e-14, cumulative = 1.21982e-10
DICPCG:  Solving for p, Initial residual = 7.09993e-06, Final residual = 9.73278e-07, No Iterations 47
time step continuity errors : sum local = 1.17769e-12, global = 1.90658e-14, cumulative = 1.22001e-10
ExecutionTime = 1367.12 s  ClockTime = 1368 s

Time = 43

Courant Number mean: 0.000328276 max: 0.0185345
smoothSolver:  Solving for Ux, Initial residual = 0.00324193, Final residual = 4.02771e-07, No Iterations 1
smoothSolver:  Solving for Uy, Initial residual = 0.00324228, Final residual = 4.02812e-07, No Iterations 1
smoothSolver:  Solving for Uz, Initial residual = 0.0029724, Final residual = 6.34582e-08, No Iterations 1
DICPCG:  Solving for p, Initial residual = 0.000140408, Final residual = 6.43936e-06, No Iterations 566
time step continuity errors : sum local = 7.79157e-12, global = -3.02907e-14, cumulative = 1.21971e-10
DICPCG:  Solving for p, Initial residual = 6.85829e-06, Final residual = 9.30787e-07, No Iterations 27
time step continuity errors : sum local = 1.12226e-12, global = -5.3187e-14, cumulative = 1.21918e-10
ExecutionTime = 1381.89 s  ClockTime = 1382 s


    From virtual bool Foam::regIOobject::readIfModified()
    in file db/regIOobject/regIOobjectRead.C at line 275
        Re-reading object controlDict from file "/home/baqer/Git-hub-OpenFoam/snappy-pipe-2/pipe-flow-2/pipe-2/system/controlDict"
Time = 43.5

Courant Number mean: 0.000328264 max: 0.0184362
smoothSolver:  Solving for Ux, Initial residual = 0.00318743, Final residual = 3.97905e-07, No Iterations 1
smoothSolver:  Solving for Uy, Initial residual = 0.00318729, Final residual = 3.97928e-07, No Iterations 1
smoothSolver:  Solving for Uz, Initial residual = 0.0029366, Final residual = 6.25408e-08, No Iterations 1
DICPCG:  Solving for p, Initial residual = 0.000131034, Final residual = 6.46215e-06, No Iterations 538
time step continuity errors : sum local = 7.79127e-12, global = 1.63674e-13, cumulative = 1.22081e-10
DICPCG:  Solving for p, Initial residual = 6.83105e-06, Final residual = 9.76844e-07, No Iterations 82
time step continuity errors : sum local = 1.17362e-12, global = 6.94063e-14, cumulative = 1.22151e-10
ExecutionTime = 1396.46 s  ClockTime = 1397 s

Time = 44

Courant Number mean: 0.000328252 max: 0.0183378
smoothSolver:  Solving for Ux, Initial residual = 0.00313387, Final residual = 3.93083e-07, No Iterations 1
smoothSolver:  Solving for Uy, Initial residual = 0.0031335, Final residual = 3.93113e-07, No Iterations 1
smoothSolver:  Solving for Uz, Initial residual = 0.00290157, Final residual = 6.16587e-08, No Iterations 1
DICPCG:  Solving for p, Initial residual = 0.000126336, Final residual = 6.13228e-06, No Iterations 527
time step continuity errors : sum local = 7.36735e-12, global = 2.16151e-13, cumulative = 1.22367e-10
DICPCG:  Solving for p, Initial residual = 6.50954e-06, Final residual = 9.98487e-07, No Iterations 118
time step continuity errors : sum local = 1.19535e-12, global = 6.31973e-14, cumulative = 1.2243e-10
ExecutionTime = 1416.64 s  ClockTime = 1417 s

Time = 44.5

Courant Number mean: 0.00032824 max: 0.0182394
smoothSolver:  Solving for Ux, Initial residual = 0.00308131, Final residual = 3.88532e-07, No Iterations 1
smoothSolver:  Solving for Uy, Initial residual = 0.003081, Final residual = 3.88557e-07, No Iterations 1
smoothSolver:  Solving for Uz, Initial residual = 0.0028672, Final residual = 6.0784e-08, No Iterations 1
DICPCG:  Solving for p, Initial residual = 0.000125437, Final residual = 6.17083e-06, No Iterations 559
time step continuity errors : sum local = 7.38724e-12, global = -2.59131e-14, cumulative = 1.22404e-10
DICPCG:  Solving for p, Initial residual = 6.56797e-06, Final residual = 9.77916e-07, No Iterations 42
time step continuity errors : sum local = 1.16655e-12, global = -5.30653e-14, cumulative = 1.22351e-10
ExecutionTime = 1432.87 s  ClockTime = 1433 s

Time = 45

Courant Number mean: 0.000328227 max: 0.018141
smoothSolver:  Solving for Ux, Initial residual = 0.00302967, Final residual = 3.83914e-07, No Iterations 1
smoothSolver:  Solving for Uy, Initial residual = 0.00302937, Final residual = 3.83937e-07, No Iterations 1
smoothSolver:  Solving for Uz, Initial residual = 0.0028334, Final residual = 5.99293e-08, No Iterations 1
DICPCG:  Solving for p, Initial residual = 0.000124743, Final residual = 6.01775e-06, No Iterations 565
time step continuity errors : sum local = 7.17825e-12, global = 2.81123e-14, cumulative = 1.22379e-10
DICPCG:  Solving for p, Initial residual = 6.39203e-06, Final residual = 9.61591e-07, No Iterations 28
time step continuity errors : sum local = 1.1431e-12, global = -1.77423e-14, cumulative = 1.22361e-10
ExecutionTime = 1447.56 s  ClockTime = 1448 s

Time = 45.5

Courant Number mean: 0.000328215 max: 0.0180426
smoothSolver:  Solving for Ux, Initial residual = 0.00297954, Final residual = 3.79519e-07, No Iterations 1
smoothSolver:  Solving for Uy, Initial residual = 0.00297926, Final residual = 3.79544e-07, No Iterations 1
smoothSolver:  Solving for Uz, Initial residual = 0.00280047, Final residual = 5.9101e-08, No Iterations 1
DICPCG:  Solving for p, Initial residual = 0.000124097, Final residual = 5.6748e-06, No Iterations 536
time step continuity errors : sum local = 6.74569e-12, global = -7.76454e-14, cumulative = 1.22284e-10
DICPCG:  Solving for p, Initial residual = 6.05417e-06, Final residual = 9.36162e-07, No Iterations 52
time step continuity errors : sum local = 1.109e-12, global = -3.18451e-15, cumulative = 1.22281e-10
ExecutionTime = 1460.59 s  ClockTime = 1461 s

Time = 46

Courant Number mean: 0.000328203 max: 0.0179443
smoothSolver:  Solving for Ux, Initial residual = 0.00293047, Final residual = 3.75246e-07, No Iterations 1
smoothSolver:  Solving for Uy, Initial residual = 0.00293022, Final residual = 3.7527e-07, No Iterations 1
smoothSolver:  Solving for Uz, Initial residual = 0.00276834, Final residual = 5.82946e-08, No Iterations 1
DICPCG:  Solving for p, Initial residual = 0.000123387, Final residual = 5.80719e-06, No Iterations 532
time step continuity errors : sum local = 6.8791e-12, global = 3.88411e-13, cumulative = 1.22669e-10
DICPCG:  Solving for p, Initial residual = 6.18413e-06, Final residual = 9.53783e-07, No Iterations 68
time step continuity errors : sum local = 1.12599e-12, global = 6.06886e-14, cumulative = 1.2273e-10
ExecutionTime = 1475.28 s  ClockTime = 1476 s

Time = 46.5

Courant Number mean: 0.00032819 max: 0.017846
smoothSolver:  Solving for Ux, Initial residual = 0.00288235, Final residual = 3.70921e-07, No Iterations 1
smoothSolver:  Solving for Uy, Initial residual = 0.00288211, Final residual = 3.70944e-07, No Iterations 1
smoothSolver:  Solving for Uz, Initial residual = 0.00273692, Final residual = 5.75039e-08, No Iterations 1
DICPCG:  Solving for p, Initial residual = 0.000123091, Final residual = 6.13034e-06, No Iterations 495
time step continuity errors : sum local = 7.23692e-12, global = 9.37499e-14, cumulative = 1.22823e-10
DICPCG:  Solving for p, Initial residual = 6.50365e-06, Final residual = 9.94653e-07, No Iterations 74
time step continuity errors : sum local = 1.17019e-12, global = 3.50828e-14, cumulative = 1.22858e-10
ExecutionTime = 1487.62 s  ClockTime = 1488 s

Time = 47

Courant Number mean: 0.000328178 max: 0.0177478
smoothSolver:  Solving for Ux, Initial residual = 0.00283546, Final residual = 3.66888e-07, No Iterations 1
smoothSolver:  Solving for Uy, Initial residual = 0.00283523, Final residual = 3.6691e-07, No Iterations 1
smoothSolver:  Solving for Uz, Initial residual = 0.00270622, Final residual = 5.67311e-08, No Iterations 1
DICPCG:  Solving for p, Initial residual = 0.000123022, Final residual = 5.95969e-06, No Iterations 539
time step continuity errors : sum local = 7.01121e-12, global = 5.9057e-14, cumulative = 1.22918e-10
DICPCG:  Solving for p, Initial residual = 6.31103e-06, Final residual = 9.62167e-07, No Iterations 43
time step continuity errors : sum local = 1.12811e-12, global = -4.67512e-14, cumulative = 1.22871e-10
ExecutionTime = 1501.89 s  ClockTime = 1502 s

Time = 47.5

Courant Number mean: 0.000328165 max: 0.0176543
smoothSolver:  Solving for Ux, Initial residual = 0.00278944, Final residual = 3.6285e-07, No Iterations 1
smoothSolver:  Solving for Uy, Initial residual = 0.00278923, Final residual = 3.6288e-07, No Iterations 1
smoothSolver:  Solving for Uz, Initial residual = 0.00267628, Final residual = 5.59792e-08, No Iterations 1
DICPCG:  Solving for p, Initial residual = 0.000122518, Final residual = 6.09107e-06, No Iterations 563
time step continuity errors : sum local = 7.14134e-12, global = 1.04349e-14, cumulative = 1.22881e-10
DICPCG:  Solving for p, Initial residual = 6.46027e-06, Final residual = 9.67052e-07, No Iterations 27
time step continuity errors : sum local = 1.13002e-12, global = -1.34725e-14, cumulative = 1.22868e-10
ExecutionTime = 1514.61 s  ClockTime = 1515 s

Time = 48

Courant Number mean: 0.000328153 max: 0.017571
smoothSolver:  Solving for Ux, Initial residual = 0.00274444, Final residual = 3.58863e-07, No Iterations 1
smoothSolver:  Solving for Uy, Initial residual = 0.00274425, Final residual = 3.58887e-07, No Iterations 1
smoothSolver:  Solving for Uz, Initial residual = 0.00264697, Final residual = 5.5247e-08, No Iterations 1
DICPCG:  Solving for p, Initial residual = 0.000122805, Final residual = 5.98e-06, No Iterations 536
time step continuity errors : sum local = 6.98751e-12, global = -6.86837e-14, cumulative = 1.22799e-10
DICPCG:  Solving for p, Initial residual = 6.3199e-06, Final residual = 9.90964e-07, No Iterations 52
time step continuity errors : sum local = 1.15409e-12, global = 3.089e-16, cumulative = 1.22799e-10
ExecutionTime = 1529.1 s  ClockTime = 1530 s

Time = 48.5

Courant Number mean: 0.00032814 max: 0.0174877
smoothSolver:  Solving for Ux, Initial residual = 0.00270047, Final residual = 3.55047e-07, No Iterations 1
smoothSolver:  Solving for Uy, Initial residual = 0.0027003, Final residual = 3.55076e-07, No Iterations 1
smoothSolver:  Solving for Uz, Initial residual = 0.00261828, Final residual = 5.45349e-08, No Iterations 1
DICPCG:  Solving for p, Initial residual = 0.000122271, Final residual = 6.08293e-06, No Iterations 533
time step continuity errors : sum local = 7.08399e-12, global = 4.87336e-13, cumulative = 1.23287e-10
DICPCG:  Solving for p, Initial residual = 6.4298e-06, Final residual = 9.95467e-07, No Iterations 128
time step continuity errors : sum local = 1.1555e-12, global = 1.72198e-15, cumulative = 1.23288e-10
ExecutionTime = 1543.31 s  ClockTime = 1544 s

Time = 49

Courant Number mean: 0.000328128 max: 0.0174043
smoothSolver:  Solving for Ux, Initial residual = 0.00265735, Final residual = 3.51213e-07, No Iterations 1
smoothSolver:  Solving for Uy, Initial residual = 0.00265717, Final residual = 3.51232e-07, No Iterations 1
smoothSolver:  Solving for Uz, Initial residual = 0.00259018, Final residual = 5.38341e-08, No Iterations 1
DICPCG:  Solving for p, Initial residual = 0.000123891, Final residual = 6.16197e-06, No Iterations 533
time step continuity errors : sum local = 7.15227e-12, global = 1.66063e-13, cumulative = 1.23454e-10
DICPCG:  Solving for p, Initial residual = 6.51012e-06, Final residual = 9.72517e-07, No Iterations 58
time step continuity errors : sum local = 1.12505e-12, global = 7.00153e-14, cumulative = 1.23525e-10
ExecutionTime = 1557.75 s  ClockTime = 1558 s

Time = 49.5

Courant Number mean: 0.000328115 max: 0.017321
smoothSolver:  Solving for Ux, Initial residual = 0.00261492, Final residual = 3.47594e-07, No Iterations 1
smoothSolver:  Solving for Uy, Initial residual = 0.00261468, Final residual = 3.47622e-07, No Iterations 1
smoothSolver:  Solving for Uz, Initial residual = 0.00256257, Final residual = 5.31537e-08, No Iterations 1
DICPCG:  Solving for p, Initial residual = 0.000123712, Final residual = 6.02435e-06, No Iterations 560
time step continuity errors : sum local = 6.96897e-12, global = -8.91923e-14, cumulative = 1.23435e-10
DICPCG:  Solving for p, Initial residual = 6.38167e-06, Final residual = 9.86834e-07, No Iterations 26
time step continuity errors : sum local = 1.13788e-12, global = -3.20801e-14, cumulative = 1.23403e-10
ExecutionTime = 1570.41 s  ClockTime = 1571 s

Time = 50

Courant Number mean: 0.000328102 max: 0.0172377
smoothSolver:  Solving for Ux, Initial residual = 0.00257354, Final residual = 3.43929e-07, No Iterations 1
smoothSolver:  Solving for Uy, Initial residual = 0.00257327, Final residual = 3.43949e-07, No Iterations 1
smoothSolver:  Solving for Uz, Initial residual = 0.0025356, Final residual = 5.24807e-08, No Iterations 1
DICPCG:  Solving for p, Initial residual = 0.000122472, Final residual = 5.85167e-06, No Iterations 534
time step continuity errors : sum local = 6.74708e-12, global = 2.00168e-13, cumulative = 1.23603e-10
DICPCG:  Solving for p, Initial residual = 6.18744e-06, Final residual = 9.7159e-07, No Iterations 24
time step continuity errors : sum local = 1.11666e-12, global = 2.39549e-14, cumulative = 1.23627e-10
ExecutionTime = 1584.13 s  ClockTime = 1585 s

End

